<?xml version="1.0" encoding="UTF-8"?>

<!-- generated on 2023-04-05 14:34:46 by Eclipse SUMO netedit Version 1.16.0
-->

<configuration xmlns:xsi="http://www.w3.org/2001/XMLSchema-instance" xsi:noNamespaceSchemaLocation="http://sumo.dlr.de/xsd/netconvertConfiguration.xsd">

    <input>
        <sumocfg-file value="victoria_cluster.sumocfg"/>
        <additional-files value="victoria_cluster.add.xml"/>
        <route-files value="victoria_cluster.rou.xml"/>
        <sumo-net-file value="../../../../../Sumo/sumo-example/2023-03-22-16-58-00/osm.net.xml.gz"/>
    </input>

    <output>
        <output.street-names value="true"/>
    </output>

    <processing>
        <geometry.min-radius.fix.railways value="false"/>
        <geometry.max-grade.fix value="false"/>
        <offset.disable-normalization value="true"/>
        <lefthand value="0"/>
    </processing>

    <junctions>
        <no-turnarounds value="true"/>
        <junctions.corner-detail value="5"/>
        <junctions.limit-turn-speed value="5.50"/>
        <rectangular-lane-cut value="0"/>
    </junctions>

    <pedestrian>
        <walkingareas value="0"/>
    </pedestrian>

</configuration>
