<?xml version="1.0" encoding="UTF-8"?>

<!-- generated on 2023-04-05 14:34:46 by Eclipse SUMO netedit Version 1.16.0
-->

<routes xmlns:xsi="http://www.w3.org/2001/XMLSchema-instance" xsi:noNamespaceSchemaLocation="http://sumo.dlr.de/xsd/routes_file.xsd">
    <!-- Vehicles, persons and containers (sorted by depart) -->
    <flow id="f_0" begin="0.00" color="blue" from="59846323#0" to="124808902#10" end="3600" vehsPerHour="80"/>
    <flow id="f_1" begin="0.00" color="red" from="59846323#0" to="59846323#3" end="3600" vehsPerHour="80"/>
    <flow id="f_10" begin="0.00" color="0,128,0" from="59846323#0" to="124817631#8" end="3600" vehsPerHour="80"/> <!--end="3600.00" vehsPerHour="1800.00"/>-->
    <flow id="f_11" begin="0.00" color="0,128,0" from="124808902#8" to="124817632#8" end="3600" vehsPerHour="80"/>
    <flow id="f_12" begin="0.00" color="cyan" from="124817631#6" to="59846323#3" end="3600" vehsPerHour="80"/>
    <flow id="f_13" begin="0.00" color="cyan" from="124808902#8" to="124817631#8" end="3600" vehsPerHour="80"/>
    <flow id="f_14" begin="0.00" color="cyan" from="59846323#0" to="124817632#8" end="3600" vehsPerHour="80"/>
    <flow id="f_15" begin="0.00" color="cyan" from="124817632#6" to="124808902#10" end="3600" vehsPerHour="80"/>
    <flow id="f_2" begin="0.00" color="blue" from="124808902#8" to="59846323#3" end="3600" vehsPerHour="80"/>
    <flow id="f_3" begin="0.00" color="red" from="124808902#8" to="124808902#10" end="3600" vehsPerHour="80"/>
    <flow id="f_4" begin="0.00" color="blue" from="124817632#6" to="124817631#8" end="3600" vehsPerHour="80"/>
    <flow id="f_5" begin="0.00" color="red" from="124817632#6" to="124817632#8" end="3600" vehsPerHour="80"/>
    <flow id="f_6" begin="0.00" color="red" from="124817631#6" to="124817631#8" end="3600" vehsPerHour="80"/>
    <flow id="f_7" begin="0.00" color="blue" from="124817631#6" to="124817632#8" end="3600" vehsPerHour="80"/>
    <flow id="f_8" begin="0.00" color="0,128,0" from="124817632#6" to="59846323#3" end="3600" vehsPerHour="80"/>
    <flow id="f_9" begin="0.00" color="0,128,0" from="124817631#6" to="124808902#10" end="3600" vehsPerHour="80"/>
</routes>
