<?xml version="1.0" encoding="UTF-8"?>

<!-- generated on 2023-04-05 14:34:46 by Eclipse SUMO netedit Version 1.16.0
-->

<additional xmlns:xsi="http://www.w3.org/2001/XMLSchema-instance" xsi:noNamespaceSchemaLocation="http://sumo.dlr.de/xsd/additional_file.xsd">
    <!-- Detectors -->
    <laneAreaDetector id="e2_0" lane="124808902#8_1" pos="10.73" length="50.00" period="300.00" file="e2_0.xml"/>
    <laneAreaDetector id="e2_1" lane="59846323#0_1" pos="824.25" length="50.00" period="300.00" file="e2_1.xml"/>
    <laneAreaDetector id="e2_2" lane="124808902#8_0" pos="10.44" length="50.00" period="300.00" file="e2_2.xml"/>
    <laneAreaDetector id="e2_3" lane="59846323#0_0" pos="824.08" length="50.00" period="300.00" file="e2_3.xml"/>
    <laneAreaDetector id="e2_4" lane="124817631#6_0" pos="24.26" length="50.00" period="300.00" file="e2_4.xml"/>
    <laneAreaDetector id="e2_5" lane="124817632#6_1" pos="1.77" length="40.00" period="300.00" file="e2_5.xml"/>
    <laneAreaDetector id="e2_6" lane="124817631#6_1" pos="24.29" length="50.00" period="300.00" file="e2_6.xml"/>
    <laneAreaDetector id="e2_7" lane="124817632#6_0" pos="1.44" length="40.00" period="300.00" file="e2_7.xml"/>
</additional>
