<?xml version="1.0" encoding="UTF-8"?>

<!-- generated on 2023-04-04 16:57:35 by Eclipse SUMO netedit Version 1.16.0
-->

<additional xmlns:xsi="http://www.w3.org/2001/XMLSchema-instance" xsi:noNamespaceSchemaLocation="http://sumo.dlr.de/xsd/additional_file.xsd">
    <!-- Detectors -->
    <laneAreaDetector id="e2_0" lane="696925150_1" pos="67.49" length="100.00" tl="cluster_4260917315_5146794610_5146796923_5146796930_5704674780_5704674783_5704674784_5704674787_6589790747_8370171128_8370171143_8427766841_8427766842_8427766845" period="300.00" file="e2_0.xml"/>
    <laneAreaDetector id="e2_1" lane="696925150_0" pos="67.59" length="100.00" tl="cluster_4260917315_5146794610_5146796923_5146796930_5704674780_5704674783_5704674784_5704674787_6589790747_8370171128_8370171143_8427766841_8427766842_8427766845" period="300.00" file="e2_1.xml"/>
    <laneAreaDetector id="e2_2" lane="696925150_2" pos="67.83" length="100.00" tl="cluster_4260917315_5146794610_5146796923_5146796930_5704674780_5704674783_5704674784_5704674787_6589790747_8370171128_8370171143_8427766841_8427766842_8427766845" period="300.00" file="e2_2.xml"/>
    <laneAreaDetector id="e2_3" lane="696923531_0" pos="68.40" length="100.00" tl="cluster_4260917315_5146794610_5146796923_5146796930_5704674780_5704674783_5704674784_5704674787_6589790747_8370171128_8370171143_8427766841_8427766842_8427766845" period="300.00" file="e2_3.xml"/>
    <laneAreaDetector id="e2_4" lane="696923531_2" pos="68.71" length="100.00" tl="cluster_4260917315_5146794610_5146796923_5146796930_5704674780_5704674783_5704674784_5704674787_6589790747_8370171128_8370171143_8427766841_8427766842_8427766845" period="300.00" file="e2_4.xml"/>
    <laneAreaDetector id="e2_5" lane="696923531_1" pos="68.71" length="100.00" tl="cluster_4260917315_5146794610_5146796923_5146796930_5704674780_5704674783_5704674784_5704674787_6589790747_8370171128_8370171143_8427766841_8427766842_8427766845" period="300.00" file="e2_5.xml"/>
    <laneAreaDetector id="e2_6" lane="701141811#0_0" pos="54.78" length="100.00" tl="cluster_4260917315_5146794610_5146796923_5146796930_5704674780_5704674783_5704674784_5704674787_6589790747_8370171128_8370171143_8427766841_8427766842_8427766845" period="300.00" file="e2_6.xml"/>
    <laneAreaDetector id="e2_7" lane="701141811#0_1" pos="55.30" length="100.00" tl="cluster_4260917315_5146794610_5146796923_5146796930_5704674780_5704674783_5704674784_5704674787_6589790747_8370171128_8370171143_8427766841_8427766842_8427766845" period="300.00" file="e2_7.xml"/>
    <laneAreaDetector id="e2_8" lane="701141811#0_2" pos="55.31" length="100.00" tl="cluster_4260917315_5146794610_5146796923_5146796930_5704674780_5704674783_5704674784_5704674787_6589790747_8370171128_8370171143_8427766841_8427766842_8427766845" period="300.00" file="e2_8.xml"/>
</additional>
