<?xml version="1.0" encoding="UTF-8"?>

<!-- generated on 2023-04-04 18:08:09 by Eclipse SUMO netedit Version 1.16.0
-->

<routes xmlns:xsi="http://www.w3.org/2001/XMLSchema-instance" xsi:noNamespaceSchemaLocation="http://sumo.dlr.de/xsd/routes_file.xsd">
    <!-- Vehicles, persons and containers (sorted by depart) -->
    <flow id="f_0" begin="0.00" from="701141811#0" to="588822447" end="3600.00" vehsPerHour="1800.00"/>
    <flow id="f_1" begin="0.00" from="701141811#0" to="588822445" end="3600.00" vehsPerHour="1800.00"/>
    <flow id="f_2" begin="0.00" from="701141811#0" to="647122583" end="3600.00" vehsPerHour="1800.00"/>
    <flow id="f_3" begin="0.00" from="696923531" to="647122583" end="3600.00" vehsPerHour="1800.00"/>
    <flow id="f_4" begin="0.00" from="696923531" to="588822447" end="3600.00" vehsPerHour="1800.00"/>
    <flow id="f_5" begin="0.00" from="696923531" to="588822445" end="3600.00" vehsPerHour="1800.00"/>
    <flow id="f_6" begin="0.00" from="696925150" to="647122583" end="3600.00" vehsPerHour="1800.00"/>
    <flow id="f_7" begin="0.00" from="696925150" to="588822445" end="3600.00" vehsPerHour="1800.00"/>
    <flow id="f_8" begin="0.00" from="696925150" to="588822447" end="3600.00" vehsPerHour="1800.00"/>
</routes>
