<?xml version="1.0" encoding="UTF-8"?>

<!-- generated on 2023-04-04 16:06:17 by Eclipse SUMO netedit Version 1.16.0
-->

<routes xmlns:xsi="http://www.w3.org/2001/XMLSchema-instance" xsi:noNamespaceSchemaLocation="http://sumo.dlr.de/xsd/routes_file.xsd">
    <!-- Vehicles, persons and containers (sorted by depart) -->
    <flow id="f_0" begin="0.00" from="893307215#6-AddedOnRampEdge" to="893307216#0" end="3600.00" vehsPerHour="1000.00"/>
    <flow id="f_1" begin="0.00" from="59846323#7" to="124808901#0" end="3600.00" vehsPerHour="1000.00"/>
    <flow id="f_2" begin="0.00" from="893307217#3" to="124808901#0" end="3600.00" vehsPerHour="1000.00"/>
    <flow id="f_3" begin="0.00" from="893307217#3" to="893293248#1" end="3600.00" vehsPerHour="1000.00"/>
    <flow id="f_4" begin="0.00" from="59846323#7" to="893293248#1" end="3600.00" vehsPerHour="1000.00"/>
    <flow id="f_5" begin="0.00" from="893307215#6-AddedOnRampEdge" to="59917046#0" end="3600.00" vehsPerHour="1000.00"/>
    <flow id="f_6" begin="0.00" from="893307217#3" to="124808902#0-AddedOffRampEdge" end="3600.00" vehsPerHour="1000.00"/>
    <flow id="f_7" begin="0.00" from="927361078" to="124808902#0-AddedOffRampEdge" end="3600.00" vehsPerHour="1000.00"/>
</routes>
