<?xml version="1.0" encoding="UTF-8"?>

<!-- generated on 2023-03-21 21:02:05 by Eclipse SUMO netedit Version 1.16.0
<configuration xmlns:xsi="http://www.w3.org/2001/XMLSchema-instance" xsi:noNamespaceSchemaLocation="http://sumo.dlr.de/xsd/netconvertConfiguration.xsd">

    <input>
        <sumocfg-file value="/home/luis/Documents/cinvestav/InteligenciaComputacional/proyecto/Tutorial/Tut01.sumocfg"/>
        <route-files value="/home/luis/Documents/cinvestav/InteligenciaComputacional/proyecto/Tutorial/Tut01.rou.xml"/>
        <sumo-net-file value="/home/luis/Documents/cinvestav/InteligenciaComputacional/proyecto/Tutorial/Tut01.net.xml"/>
    </input>

    <output>
        <output-file value="/home/luis/Documents/cinvestav/InteligenciaComputacional/proyecto/Tutorial/Tut01.net.xml"/>
    </output>

    <processing>
        <offset.disable-normalization value="true"/>
    </processing>

    <junctions>
        <no-turnarounds value="true"/>
    </junctions>

    <netedit>
        <new-network value="false"/>
    </netedit>

</configuration>
-->

<net version="1.16" junctionCornerDetail="5" limitTurnSpeed="5.50" xmlns:xsi="http://www.w3.org/2001/XMLSchema-instance" xsi:noNamespaceSchemaLocation="http://sumo.dlr.de/xsd/net_file.xsd">

    <location netOffset="0.00,0.00" convBoundary="0.00,-100.00,400.00,100.00" origBoundary="10000000000.00,10000000000.00,-10000000000.00,-10000000000.00" projParameter="!"/>

    <edge id=":J1_0" function="internal">
        <lane id=":J1_0_0" index="0" speed="6.51" length="9.03" shape="110.40,4.80 107.95,5.15 106.20,6.20 105.15,7.95 104.80,10.40"/>
    </edge>
    <edge id=":J1_1" function="internal">
        <lane id=":J1_1_0" index="0" speed="13.89" length="14.40" shape="110.40,4.80 96.00,4.80"/>
        <lane id=":J1_1_1" index="1" speed="13.89" length="14.40" shape="110.40,1.60 96.00,1.60"/>
    </edge>
    <edge id=":J1_3" function="internal">
        <lane id=":J1_3_0" index="0" speed="6.51" length="9.03" shape="104.80,-10.40 105.15,-7.95 106.20,-6.20 107.95,-5.15 110.40,-4.80"/>
    </edge>
    <edge id=":J1_4" function="internal">
        <lane id=":J1_4_0" index="0" speed="13.89" length="20.80" shape="104.80,-10.40 104.80,10.40"/>
        <lane id=":J1_4_1" index="1" speed="13.89" length="20.80" shape="101.60,-10.40 101.60,10.40"/>
    </edge>
    <edge id=":J1_6" function="internal">
        <lane id=":J1_6_0" index="0" speed="8.10" length="14.57" shape="101.60,-10.40 101.25,-5.15 100.20,-1.40 98.45,0.85 96.00,1.60"/>
    </edge>
    <edge id=":J1_7" function="internal">
        <lane id=":J1_7_0" index="0" speed="13.89" length="14.40" shape="96.00,-4.80 110.40,-4.80"/>
        <lane id=":J1_7_1" index="1" speed="13.89" length="14.40" shape="96.00,-1.60 110.40,-1.60"/>
    </edge>
    <edge id=":J1_9" function="internal">
        <lane id=":J1_9_0" index="0" speed="8.10" length="2.37" shape="96.00,-1.60 98.27,-0.91"/>
    </edge>
    <edge id=":J1_10" function="internal">
        <lane id=":J1_10_0" index="0" speed="8.10" length="12.20" shape="98.27,-0.91 98.45,-0.85 100.20,1.40 101.25,5.15 101.60,10.40"/>
    </edge>
    <edge id=":J5_0" function="internal">
        <lane id=":J5_0_0" index="0" speed="6.51" length="9.03" shape="195.20,10.40 194.85,7.95 193.80,6.20 192.05,5.15 189.60,4.80"/>
    </edge>
    <edge id=":J5_1" function="internal">
        <lane id=":J5_1_0" index="0" speed="13.89" length="20.80" shape="195.20,10.40 195.20,-10.40"/>
        <lane id=":J5_1_1" index="1" speed="13.89" length="20.80" shape="198.40,10.40 198.40,-10.40"/>
    </edge>
    <edge id=":J5_3" function="internal">
        <lane id=":J5_3_0" index="0" speed="8.10" length="14.57" shape="198.40,10.40 198.75,5.15 199.80,1.40 201.55,-0.85 204.00,-1.60"/>
    </edge>
    <edge id=":J5_4" function="internal">
        <lane id=":J5_4_0" index="0" speed="13.89" length="14.40" shape="204.00,4.80 189.60,4.80"/>
        <lane id=":J5_4_1" index="1" speed="13.89" length="14.40" shape="204.00,1.60 189.60,1.60"/>
    </edge>
    <edge id=":J5_6" function="internal">
        <lane id=":J5_6_0" index="0" speed="8.10" length="2.37" shape="204.00,1.60 201.73,0.91"/>
    </edge>
    <edge id=":J5_10" function="internal">
        <lane id=":J5_10_0" index="0" speed="8.10" length="12.20" shape="201.73,0.91 201.55,0.85 199.80,-1.40 198.75,-5.15 198.40,-10.40"/>
    </edge>
    <edge id=":J5_7" function="internal">
        <lane id=":J5_7_0" index="0" speed="6.51" length="9.03" shape="189.60,-4.80 192.05,-5.15 193.80,-6.20 194.85,-7.95 195.20,-10.40"/>
    </edge>
    <edge id=":J5_8" function="internal">
        <lane id=":J5_8_0" index="0" speed="13.89" length="14.40" shape="189.60,-4.80 204.00,-4.80"/>
        <lane id=":J5_8_1" index="1" speed="13.89" length="14.40" shape="189.60,-1.60 204.00,-1.60"/>
    </edge>
    <edge id=":J6_0" function="internal">
        <lane id=":J6_0_0" index="0" speed="6.51" length="9.03" shape="310.40,4.80 307.95,5.15 306.20,6.20 305.15,7.95 304.80,10.40"/>
    </edge>
    <edge id=":J6_1" function="internal">
        <lane id=":J6_1_0" index="0" speed="13.89" length="14.40" shape="310.40,4.80 296.00,4.80"/>
        <lane id=":J6_1_1" index="1" speed="13.89" length="14.40" shape="310.40,1.60 296.00,1.60"/>
    </edge>
    <edge id=":J6_3" function="internal">
        <lane id=":J6_3_0" index="0" speed="6.51" length="9.03" shape="304.80,-10.40 305.15,-7.95 306.20,-6.20 307.95,-5.15 310.40,-4.80"/>
    </edge>
    <edge id=":J6_4" function="internal">
        <lane id=":J6_4_0" index="0" speed="13.89" length="20.80" shape="304.80,-10.40 304.80,10.40"/>
        <lane id=":J6_4_1" index="1" speed="13.89" length="20.80" shape="301.60,-10.40 301.60,10.40"/>
    </edge>
    <edge id=":J6_6" function="internal">
        <lane id=":J6_6_0" index="0" speed="8.10" length="14.57" shape="301.60,-10.40 301.25,-5.15 300.20,-1.40 298.45,0.85 296.00,1.60"/>
    </edge>
    <edge id=":J6_7" function="internal">
        <lane id=":J6_7_0" index="0" speed="13.89" length="14.40" shape="296.00,-4.80 310.40,-4.80"/>
        <lane id=":J6_7_1" index="1" speed="13.89" length="14.40" shape="296.00,-1.60 310.40,-1.60"/>
    </edge>
    <edge id=":J6_9" function="internal">
        <lane id=":J6_9_0" index="0" speed="8.10" length="2.37" shape="296.00,-1.60 298.27,-0.91"/>
    </edge>
    <edge id=":J6_10" function="internal">
        <lane id=":J6_10_0" index="0" speed="8.10" length="12.20" shape="298.27,-0.91 298.45,-0.85 300.20,1.40 301.25,5.15 301.60,10.40"/>
    </edge>

    <edge id="-E0" from="J1" to="J0" priority="-1">
        <lane id="-E0_0" index="0" speed="13.89" length="96.00" shape="96.00,4.80 0.00,4.80"/>
        <lane id="-E0_1" index="1" speed="13.89" length="96.00" shape="96.00,1.60 0.00,1.60"/>
    </edge>
    <edge id="-E5" from="J5" to="J1" priority="-1">
        <lane id="-E5_0" index="0" speed="13.89" length="79.20" shape="189.60,4.80 110.40,4.80"/>
        <lane id="-E5_1" index="1" speed="13.89" length="79.20" shape="189.60,1.60 110.40,1.60"/>
    </edge>
    <edge id="-E6" from="J6" to="J5" priority="-1">
        <lane id="-E6_0" index="0" speed="13.89" length="92.00" shape="296.00,4.80 204.00,4.80"/>
        <lane id="-E6_1" index="1" speed="13.89" length="92.00" shape="296.00,1.60 204.00,1.60"/>
    </edge>
    <edge id="-E7" from="J7" to="J6" priority="-1">
        <lane id="-E7_0" index="0" speed="13.89" length="89.60" shape="400.00,4.80 310.40,4.80"/>
        <lane id="-E7_1" index="1" speed="13.89" length="89.60" shape="400.00,1.60 310.40,1.60"/>
    </edge>
    <edge id="E0" from="J0" to="J1" priority="-1">
        <lane id="E0_0" index="0" speed="13.89" length="96.00" shape="0.00,-4.80 96.00,-4.80"/>
        <lane id="E0_1" index="1" speed="13.89" length="96.00" shape="0.00,-1.60 96.00,-1.60"/>
    </edge>
    <edge id="E10" from="J10" to="J5" priority="-1">
        <lane id="E10_0" index="0" speed="13.89" length="89.60" shape="195.20,100.00 195.20,10.40"/>
        <lane id="E10_1" index="1" speed="13.89" length="89.60" shape="198.40,100.00 198.40,10.40"/>
    </edge>
    <edge id="E11" from="J5" to="J11" priority="-1">
        <lane id="E11_0" index="0" speed="13.89" length="89.60" shape="195.20,-10.40 195.20,-100.00"/>
        <lane id="E11_1" index="1" speed="13.89" length="89.60" shape="198.40,-10.40 198.40,-100.00"/>
    </edge>
    <edge id="E12" from="J6" to="J12" priority="-1">
        <lane id="E12_0" index="0" speed="13.89" length="89.60" shape="304.80,10.40 304.80,100.00"/>
        <lane id="E12_1" index="1" speed="13.89" length="89.60" shape="301.60,10.40 301.60,100.00"/>
    </edge>
    <edge id="E13" from="J13" to="J6" priority="-1">
        <lane id="E13_0" index="0" speed="13.89" length="89.60" shape="304.80,-100.00 304.80,-10.40"/>
        <lane id="E13_1" index="1" speed="13.89" length="89.60" shape="301.60,-100.00 301.60,-10.40"/>
    </edge>
    <edge id="E5" from="J1" to="J5" priority="-1">
        <lane id="E5_0" index="0" speed="13.89" length="79.20" shape="110.40,-4.80 189.60,-4.80"/>
        <lane id="E5_1" index="1" speed="13.89" length="79.20" shape="110.40,-1.60 189.60,-1.60"/>
    </edge>
    <edge id="E6" from="J5" to="J6" priority="-1">
        <lane id="E6_0" index="0" speed="13.89" length="92.00" shape="204.00,-4.80 296.00,-4.80"/>
        <lane id="E6_1" index="1" speed="13.89" length="92.00" shape="204.00,-1.60 296.00,-1.60"/>
    </edge>
    <edge id="E7" from="J6" to="J7" priority="-1">
        <lane id="E7_0" index="0" speed="13.89" length="89.60" shape="310.40,-4.80 400.00,-4.80"/>
        <lane id="E7_1" index="1" speed="13.89" length="89.60" shape="310.40,-1.60 400.00,-1.60"/>
    </edge>
    <edge id="E8" from="J8" to="J1" priority="-1">
        <lane id="E8_0" index="0" speed="13.89" length="89.60" shape="104.80,-100.00 104.80,-10.40"/>
        <lane id="E8_1" index="1" speed="13.89" length="89.60" shape="101.60,-100.00 101.60,-10.40"/>
    </edge>
    <edge id="E9" from="J1" to="J9" priority="-1">
        <lane id="E9_0" index="0" speed="13.89" length="89.60" shape="104.80,10.40 104.80,100.00"/>
        <lane id="E9_1" index="1" speed="13.89" length="89.60" shape="101.60,10.40 101.60,100.00"/>
    </edge>

    <tlLogic id="J1" type="static" programID="0" offset="0">
        <phase duration="30" state="GGGrrrrGGg"/>
        <phase duration="3"  state="yyyrrrryyy"/>
        <phase duration="20" state="rrrGGGGrrr"/>
        <phase duration="3"  state="rrryyyyrrr"/>
    </tlLogic>
    <tlLogic id="J5" type="static" programID="0" offset="0">
        <phase duration="42" state="rrrrGGgGGG"/>
        <phase duration="3"  state="rrrryyyyyy"/>
        <phase duration="42" state="GGGGrrrrrr"/>
        <phase duration="3"  state="yyyyrrrrrr"/>
    </tlLogic>

    <junction id="J0" type="dead_end" x="0.00" y="0.00" incLanes="-E0_0 -E0_1" intLanes="" shape="0.00,0.00 0.00,6.40 0.00,0.00"/>
    <junction id="J1" type="traffic_light" x="100.00" y="0.00" incLanes="-E5_0 -E5_1 E8_0 E8_1 E0_0 E0_1" intLanes=":J1_0_0 :J1_1_0 :J1_1_1 :J1_3_0 :J1_4_0 :J1_4_1 :J1_6_0 :J1_7_0 :J1_7_1 :J1_10_0" shape="100.00,10.40 106.40,10.40 106.84,8.18 107.40,7.40 108.18,6.84 109.18,6.51 110.40,6.40 110.40,-6.40 108.18,-6.84 107.40,-7.40 106.84,-8.18 106.51,-9.18 106.40,-10.40 100.00,-10.40 99.56,-8.18 99.00,-7.40 98.22,-6.84 97.22,-6.51 96.00,-6.40 96.00,6.40 98.22,6.84 99.00,7.40 99.56,8.18 99.89,9.18">
        <request index="0" response="0000000000" foes="0000110000" cont="0"/>
        <request index="1" response="0000000000" foes="1001110000" cont="0"/>
        <request index="2" response="0000000000" foes="1001110000" cont="0"/>
        <request index="3" response="0110000000" foes="0110000000" cont="0"/>
        <request index="4" response="1110000111" foes="1110000111" cont="0"/>
        <request index="5" response="1110000111" foes="1110000111" cont="0"/>
        <request index="6" response="1110000110" foes="1110000110" cont="0"/>
        <request index="7" response="0000000000" foes="0001111000" cont="0"/>
        <request index="8" response="0000000000" foes="0001111000" cont="0"/>
        <request index="9" response="0000000110" foes="0001110110" cont="1"/>
    </junction>
    <junction id="J10" type="dead_end" x="200.00" y="100.00" incLanes="" intLanes="" shape="200.00,100.00 193.60,100.00"/>
    <junction id="J11" type="dead_end" x="200.00" y="-100.00" incLanes="E11_0 E11_1" intLanes="" shape="193.60,-100.00 200.00,-100.00"/>
    <junction id="J12" type="dead_end" x="300.00" y="100.00" incLanes="E12_0 E12_1" intLanes="" shape="306.40,100.00 300.00,100.00"/>
    <junction id="J13" type="dead_end" x="300.00" y="-100.00" incLanes="" intLanes="" shape="300.00,-100.00 306.40,-100.00"/>
    <junction id="J5" type="traffic_light" x="200.00" y="0.00" incLanes="E10_0 E10_1 -E6_0 -E6_1 E5_0 E5_1" intLanes=":J5_0_0 :J5_1_0 :J5_1_1 :J5_3_0 :J5_4_0 :J5_4_1 :J5_10_0 :J5_7_0 :J5_8_0 :J5_8_1" shape="193.60,10.40 200.00,10.40 200.44,8.18 201.00,7.40 201.78,6.84 202.78,6.51 204.00,6.40 204.00,-6.40 201.78,-6.84 201.00,-7.40 200.44,-8.18 200.11,-9.18 200.00,-10.40 193.60,-10.40 193.16,-8.18 192.60,-7.40 191.82,-6.84 190.82,-6.51 189.60,-6.40 189.60,6.40 191.82,6.84 192.60,7.40 193.16,8.18 193.49,9.18">
        <request index="0" response="0000110000" foes="0000110000" cont="0"/>
        <request index="1" response="1111110000" foes="1111110000" cont="0"/>
        <request index="2" response="1111110000" foes="1111110000" cont="0"/>
        <request index="3" response="1101110000" foes="1101110000" cont="0"/>
        <request index="4" response="0000000000" foes="0000001111" cont="0"/>
        <request index="5" response="0000000000" foes="0000001111" cont="0"/>
        <request index="6" response="1100000000" foes="1100001110" cont="1"/>
        <request index="7" response="0000000000" foes="0000000110" cont="0"/>
        <request index="8" response="0000000000" foes="0001001110" cont="0"/>
        <request index="9" response="0000000000" foes="0001001110" cont="0"/>
    </junction>
    <junction id="J6" type="priority" x="300.00" y="0.00" incLanes="-E7_0 -E7_1 E13_0 E13_1 E6_0 E6_1" intLanes=":J6_0_0 :J6_1_0 :J6_1_1 :J6_3_0 :J6_4_0 :J6_4_1 :J6_6_0 :J6_7_0 :J6_7_1 :J6_10_0" shape="300.00,10.40 306.40,10.40 306.84,8.18 307.40,7.40 308.18,6.84 309.18,6.51 310.40,6.40 310.40,-6.40 308.18,-6.84 307.40,-7.40 306.84,-8.18 306.51,-9.18 306.40,-10.40 300.00,-10.40 299.56,-8.18 299.00,-7.40 298.22,-6.84 297.22,-6.51 296.00,-6.40 296.00,6.40 298.22,6.84 299.00,7.40 299.56,8.18 299.89,9.18">
        <request index="0" response="0000000000" foes="0000110000" cont="0"/>
        <request index="1" response="0000000000" foes="1001110000" cont="0"/>
        <request index="2" response="0000000000" foes="1001110000" cont="0"/>
        <request index="3" response="0110000000" foes="0110000000" cont="0"/>
        <request index="4" response="1110000111" foes="1110000111" cont="0"/>
        <request index="5" response="1110000111" foes="1110000111" cont="0"/>
        <request index="6" response="1110000110" foes="1110000110" cont="0"/>
        <request index="7" response="0000000000" foes="0001111000" cont="0"/>
        <request index="8" response="0000000000" foes="0001111000" cont="0"/>
        <request index="9" response="0000000110" foes="0001110110" cont="1"/>
    </junction>
    <junction id="J7" type="dead_end" x="400.00" y="0.00" incLanes="E7_0 E7_1" intLanes="" shape="400.00,0.00 400.00,-6.40 400.00,0.00"/>
    <junction id="J8" type="dead_end" x="100.00" y="-100.00" incLanes="" intLanes="" shape="100.00,-100.00 106.40,-100.00"/>
    <junction id="J9" type="dead_end" x="100.00" y="100.00" incLanes="E9_0 E9_1" intLanes="" shape="106.40,100.00 100.00,100.00"/>

    <junction id=":J1_10_0" type="internal" x="98.27" y="-0.91" incLanes=":J1_9_0 -E5_0 -E5_1" intLanes=":J1_0_0 :J1_1_0 :J1_1_1 :J1_4_0 :J1_4_1 :J1_6_0"/>
    <junction id=":J5_10_0" type="internal" x="201.73" y="0.91" incLanes=":J5_6_0 E5_0 E5_1" intLanes=":J5_1_0 :J5_1_1 :J5_3_0 :J5_7_0 :J5_8_0 :J5_8_1"/>
    <junction id=":J6_10_0" type="internal" x="298.27" y="-0.91" incLanes=":J6_9_0 -E7_0 -E7_1" intLanes=":J6_0_0 :J6_1_0 :J6_1_1 :J6_4_0 :J6_4_1 :J6_6_0"/>

    <connection from="-E5" to="E9" fromLane="0" toLane="0" via=":J1_0_0" tl="J1" linkIndex="0" dir="r" state="O"/>
    <connection from="-E5" to="-E0" fromLane="0" toLane="0" via=":J1_1_0" tl="J1" linkIndex="1" dir="s" state="O"/>
    <connection from="-E5" to="-E0" fromLane="1" toLane="1" via=":J1_1_1" tl="J1" linkIndex="2" dir="s" state="O"/>
    <connection from="-E6" to="-E5" fromLane="0" toLane="0" via=":J5_4_0" tl="J5" linkIndex="4" dir="s" state="O"/>
    <connection from="-E6" to="-E5" fromLane="1" toLane="1" via=":J5_4_1" tl="J5" linkIndex="5" dir="s" state="O"/>
    <connection from="-E6" to="E11" fromLane="1" toLane="1" via=":J5_6_0" tl="J5" linkIndex="6" dir="l" state="o"/>
    <connection from="-E7" to="E12" fromLane="0" toLane="0" via=":J6_0_0" dir="r" state="M"/>
    <connection from="-E7" to="-E6" fromLane="0" toLane="0" via=":J6_1_0" dir="s" state="M"/>
    <connection from="-E7" to="-E6" fromLane="1" toLane="1" via=":J6_1_1" dir="s" state="M"/>
    <connection from="E0" to="E5" fromLane="0" toLane="0" via=":J1_7_0" tl="J1" linkIndex="7" dir="s" state="O"/>
    <connection from="E0" to="E5" fromLane="1" toLane="1" via=":J1_7_1" tl="J1" linkIndex="8" dir="s" state="O"/>
    <connection from="E0" to="E9" fromLane="1" toLane="1" via=":J1_9_0" tl="J1" linkIndex="9" dir="l" state="o"/>
    <connection from="E10" to="-E5" fromLane="0" toLane="0" via=":J5_0_0" tl="J5" linkIndex="0" dir="r" state="o"/>
    <connection from="E10" to="E11" fromLane="0" toLane="0" via=":J5_1_0" tl="J5" linkIndex="1" dir="s" state="o"/>
    <connection from="E10" to="E11" fromLane="1" toLane="1" via=":J5_1_1" tl="J5" linkIndex="2" dir="s" state="o"/>
    <connection from="E10" to="E6" fromLane="1" toLane="1" via=":J5_3_0" tl="J5" linkIndex="3" dir="l" state="o"/>
    <connection from="E13" to="E7" fromLane="0" toLane="0" via=":J6_3_0" dir="r" state="m"/>
    <connection from="E13" to="E12" fromLane="0" toLane="0" via=":J6_4_0" dir="s" state="m"/>
    <connection from="E13" to="E12" fromLane="1" toLane="1" via=":J6_4_1" dir="s" state="m"/>
    <connection from="E13" to="-E6" fromLane="1" toLane="1" via=":J6_6_0" dir="l" state="m"/>
    <connection from="E5" to="E11" fromLane="0" toLane="0" via=":J5_7_0" tl="J5" linkIndex="7" dir="r" state="O"/>
    <connection from="E5" to="E6" fromLane="0" toLane="0" via=":J5_8_0" tl="J5" linkIndex="8" dir="s" state="O"/>
    <connection from="E5" to="E6" fromLane="1" toLane="1" via=":J5_8_1" tl="J5" linkIndex="9" dir="s" state="O"/>
    <connection from="E6" to="E7" fromLane="0" toLane="0" via=":J6_7_0" dir="s" state="M"/>
    <connection from="E6" to="E7" fromLane="1" toLane="1" via=":J6_7_1" dir="s" state="M"/>
    <connection from="E6" to="E12" fromLane="1" toLane="1" via=":J6_9_0" dir="l" state="m"/>
    <connection from="E8" to="E5" fromLane="0" toLane="0" via=":J1_3_0" tl="J1" linkIndex="3" dir="r" state="o"/>
    <connection from="E8" to="E9" fromLane="0" toLane="0" via=":J1_4_0" tl="J1" linkIndex="4" dir="s" state="o"/>
    <connection from="E8" to="E9" fromLane="1" toLane="1" via=":J1_4_1" tl="J1" linkIndex="5" dir="s" state="o"/>
    <connection from="E8" to="-E0" fromLane="1" toLane="1" via=":J1_6_0" tl="J1" linkIndex="6" dir="l" state="o"/>

    <connection from=":J1_0" to="E9" fromLane="0" toLane="0" dir="r" state="M"/>
    <connection from=":J1_1" to="-E0" fromLane="0" toLane="0" dir="s" state="M"/>
    <connection from=":J1_1" to="-E0" fromLane="1" toLane="1" dir="s" state="M"/>
    <connection from=":J1_3" to="E5" fromLane="0" toLane="0" dir="r" state="M"/>
    <connection from=":J1_4" to="E9" fromLane="0" toLane="0" dir="s" state="M"/>
    <connection from=":J1_4" to="E9" fromLane="1" toLane="1" dir="s" state="M"/>
    <connection from=":J1_6" to="-E0" fromLane="0" toLane="1" dir="l" state="M"/>
    <connection from=":J1_7" to="E5" fromLane="0" toLane="0" dir="s" state="M"/>
    <connection from=":J1_7" to="E5" fromLane="1" toLane="1" dir="s" state="M"/>
    <connection from=":J1_9" to="E9" fromLane="0" toLane="1" via=":J1_10_0" dir="l" state="m"/>
    <connection from=":J1_10" to="E9" fromLane="0" toLane="1" dir="l" state="M"/>
    <connection from=":J5_0" to="-E5" fromLane="0" toLane="0" dir="r" state="M"/>
    <connection from=":J5_1" to="E11" fromLane="0" toLane="0" dir="s" state="M"/>
    <connection from=":J5_1" to="E11" fromLane="1" toLane="1" dir="s" state="M"/>
    <connection from=":J5_3" to="E6" fromLane="0" toLane="1" dir="l" state="M"/>
    <connection from=":J5_4" to="-E5" fromLane="0" toLane="0" dir="s" state="M"/>
    <connection from=":J5_4" to="-E5" fromLane="1" toLane="1" dir="s" state="M"/>
    <connection from=":J5_6" to="E11" fromLane="0" toLane="1" via=":J5_10_0" dir="l" state="m"/>
    <connection from=":J5_10" to="E11" fromLane="0" toLane="1" dir="l" state="M"/>
    <connection from=":J5_7" to="E11" fromLane="0" toLane="0" dir="r" state="M"/>
    <connection from=":J5_8" to="E6" fromLane="0" toLane="0" dir="s" state="M"/>
    <connection from=":J5_8" to="E6" fromLane="1" toLane="1" dir="s" state="M"/>
    <connection from=":J6_0" to="E12" fromLane="0" toLane="0" dir="r" state="M"/>
    <connection from=":J6_1" to="-E6" fromLane="0" toLane="0" dir="s" state="M"/>
    <connection from=":J6_1" to="-E6" fromLane="1" toLane="1" dir="s" state="M"/>
    <connection from=":J6_3" to="E7" fromLane="0" toLane="0" dir="r" state="M"/>
    <connection from=":J6_4" to="E12" fromLane="0" toLane="0" dir="s" state="M"/>
    <connection from=":J6_4" to="E12" fromLane="1" toLane="1" dir="s" state="M"/>
    <connection from=":J6_6" to="-E6" fromLane="0" toLane="1" dir="l" state="M"/>
    <connection from=":J6_7" to="E7" fromLane="0" toLane="0" dir="s" state="M"/>
    <connection from=":J6_7" to="E7" fromLane="1" toLane="1" dir="s" state="M"/>
    <connection from=":J6_9" to="E12" fromLane="0" toLane="1" via=":J6_10_0" dir="l" state="m"/>
    <connection from=":J6_10" to="E12" fromLane="0" toLane="1" dir="l" state="M"/>

</net>
