<?xml version="1.0" encoding="UTF-8"?>

<!-- generated on 2023-03-21 20:23:45 by Eclipse SUMO netedit Version 1.16.0
-->

<routes xmlns:xsi="http://www.w3.org/2001/XMLSchema-instance" xsi:noNamespaceSchemaLocation="http://sumo.dlr.de/xsd/routes_file.xsd">
    <!-- Vehicles, persons and containers (sorted by depart) -->
    <flow id="f_0" begin="0.00" from="E0" to="E12" end="1000.00" probability="0.50"/>
    <flow id="f_1" begin="0.00" from="E10" to="E11" end="500.00" probability="0.50"/>
    <flow id="f_2" type="DEFAULT_BIKETYPE" begin="0.00" from="-E7" to="-E0" end="500.00" vehsPerHour="400.00"/>
</routes>
