<?xml version="1.0" encoding="UTF-8"?>

<!-- generated on 2023-04-04 18:46:40 by Eclipse SUMO netedit Version 1.16.0
-->

<routes xmlns:xsi="http://www.w3.org/2001/XMLSchema-instance" xsi:noNamespaceSchemaLocation="http://sumo.dlr.de/xsd/routes_file.xsd">
    <!-- Vehicles, persons and containers (sorted by depart) -->
    <flow id="f_0" begin="0.00" from="893307215#10" to="893307216#0" end="3600.00" probability="0.50"/>
    <flow id="f_1" begin="0.00" from="893307215#10" to="124808901#0" end="3600.00" probability="0.50"/>
    <flow id="f_2" begin="0.00" from="893307215#10" to="124808902#0" end="3600.00" probability="0.50"/>
    <flow id="f_3" begin="0.00" from="59846323#13" to="124808901#0" end="3600.00" probability="0.50"/>
    <flow id="f_4" begin="0.00" from="59846323#13" to="893293248#1" end="3600.00" probability="0.50"/>
    <flow id="f_5" begin="0.00" from="59846323#13" to="893307216#0" end="3600.00" probability="0.50"/>
    <flow id="f_6" begin="0.00" from="893307217#3" to="893293248#1" end="3600.00" probability="0.50"/>
    <flow id="f_7" begin="0.00" from="893307217#3" to="124808902#0" end="3600.00" probability="0.50"/>
    <flow id="f_8" begin="0.00" from="893307217#3" to="124808901#0" end="3600.00" probability="0.50"/>
</routes>
