<?xml version="1.0" encoding="UTF-8"?>

<!-- generated on 2023-04-05 12:44:01 by Eclipse SUMO netedit Version 1.16.0
<configuration xmlns:xsi="http://www.w3.org/2001/XMLSchema-instance" xsi:noNamespaceSchemaLocation="http://sumo.dlr.de/xsd/netconvertConfiguration.xsd">

    <input>
        <sumocfg-file value="/home/luis/Documents/cinvestav/InteligenciaComputacional/proyecto/Tutorial/victoria_cluster.sumocfg"/>
        <additional-files value="/home/luis/Documents/cinvestav/InteligenciaComputacional/proyecto/Tutorial/victoria_cluster.add.xml"/>
        <route-files value="/home/luis/Documents/cinvestav/InteligenciaComputacional/proyecto/Tutorial/victoria_cluster.rou.xml"/>
        <sumo-net-file value="/home/luis/Documents/cinvestav/InteligenciaComputacional/proyecto/Tutorial/victoria_cluster.net.xml"/>
    </input>

    <output>
        <output-file value="/home/luis/Documents/cinvestav/InteligenciaComputacional/proyecto/Tutorial/victoria_cluster.net.xml"/>
        <output.street-names value="true"/>
    </output>

    <processing>
        <geometry.min-radius.fix.railways value="false"/>
        <geometry.max-grade.fix value="false"/>
        <offset.disable-normalization value="true"/>
        <lefthand value="0"/>
    </processing>

    <junctions>
        <no-turnarounds value="true"/>
        <junctions.corner-detail value="5"/>
        <junctions.limit-turn-speed value="5.50"/>
        <rectangular-lane-cut value="0"/>
    </junctions>

    <pedestrian>
        <walkingareas value="0"/>
    </pedestrian>

</configuration>
-->

<net version="1.16" junctionCornerDetail="5" limitTurnSpeed="5.50" xmlns:xsi="http://www.w3.org/2001/XMLSchema-instance" xsi:noNamespaceSchemaLocation="http://sumo.dlr.de/xsd/net_file.xsd">

    <location netOffset="-483896.18,-2623778.06" convBoundary="0.00,0.00,3244.39,4503.85" origBoundary="-99.158029,23.724902,-99.126186,23.765590" projParameter="+proj=utm +zone=14 +ellps=WGS84 +datum=WGS84 +units=m +no_defs"/>

    <type id="cycleway.lane" allow="bicycle" bikeLaneWidth="1.00"/>
    <type id="cycleway.opposite_lane" allow="bicycle" bikeLaneWidth="1.00"/>
    <type id="cycleway.opposite_track" allow="bicycle" bikeLaneWidth="1.50"/>
    <type id="cycleway.track" allow="bicycle" bikeLaneWidth="1.50"/>
    <type id="highway.bridleway" priority="1" numLanes="1" speed="2.78" allow="pedestrian" oneway="1" width="2.00"/>
    <type id="highway.bus_guideway" priority="1" numLanes="1" speed="27.78" allow="bus" oneway="1"/>
    <type id="highway.cycleway" priority="1" numLanes="1" speed="5.56" allow="bicycle" oneway="0" width="1.00"/>
    <type id="highway.footway" priority="1" numLanes="1" speed="2.78" allow="pedestrian" oneway="1" width="2.00"/>
    <type id="highway.ford" priority="1" numLanes="1" speed="2.78" allow="army" oneway="0"/>
    <type id="highway.living_street" priority="2" numLanes="1" speed="2.78" disallow="tram rail_urban rail rail_electric rail_fast ship" oneway="0"/>
    <type id="highway.motorway" priority="14" numLanes="2" speed="39.44" allow="private emergency authority army vip passenger hov taxi bus coach delivery truck trailer motorcycle evehicle custom1 custom2" oneway="1"/>
    <type id="highway.motorway_link" priority="9" numLanes="1" speed="22.22" allow="private emergency authority army vip passenger hov taxi bus coach delivery truck trailer motorcycle evehicle custom1 custom2" oneway="1"/>
    <type id="highway.path" priority="1" numLanes="1" speed="5.56" allow="pedestrian bicycle" oneway="0" width="2.00"/>
    <type id="highway.pedestrian" priority="1" numLanes="1" speed="2.78" allow="pedestrian" oneway="1" width="2.00"/>
    <type id="highway.primary" priority="12" numLanes="2" speed="27.78" disallow="tram rail_urban rail rail_electric rail_fast ship" oneway="0"/>
    <type id="highway.primary_link" priority="7" numLanes="1" speed="22.22" disallow="tram rail_urban rail rail_electric rail_fast ship" oneway="0"/>
    <type id="highway.raceway" priority="15" numLanes="2" speed="83.33" allow="vip" oneway="0"/>
    <type id="highway.residential" priority="3" numLanes="1" speed="13.89" disallow="tram rail_urban rail rail_electric rail_fast ship" oneway="0"/>
    <type id="highway.secondary" priority="11" numLanes="1" speed="27.78" disallow="tram rail_urban rail rail_electric rail_fast ship" oneway="0"/>
    <type id="highway.secondary_link" priority="6" numLanes="1" speed="22.22" disallow="tram rail_urban rail rail_electric rail_fast ship" oneway="0"/>
    <type id="highway.service" priority="1" numLanes="1" speed="5.56" allow="pedestrian delivery bicycle" oneway="0"/>
    <type id="highway.stairs" priority="1" numLanes="1" speed="1.39" allow="pedestrian" oneway="1" width="2.00"/>
    <type id="highway.step" priority="1" numLanes="1" speed="1.39" allow="pedestrian" oneway="1" width="2.00"/>
    <type id="highway.steps" priority="1" numLanes="1" speed="1.39" allow="pedestrian" oneway="1" width="2.00"/>
    <type id="highway.tertiary" priority="10" numLanes="1" speed="22.22" disallow="tram rail_urban rail rail_electric rail_fast ship" oneway="0"/>
    <type id="highway.tertiary_link" priority="5" numLanes="1" speed="22.22" disallow="tram rail_urban rail rail_electric rail_fast ship" oneway="0"/>
    <type id="highway.track" priority="1" numLanes="1" speed="5.56" allow="pedestrian motorcycle moped bicycle" oneway="0"/>
    <type id="highway.trunk" priority="13" numLanes="2" speed="27.78" disallow="pedestrian bicycle tram rail_urban rail rail_electric rail_fast ship" oneway="0"/>
    <type id="highway.trunk_link" priority="8" numLanes="1" speed="22.22" disallow="pedestrian bicycle tram rail_urban rail rail_electric rail_fast ship" oneway="0"/>
    <type id="highway.unclassified" priority="4" numLanes="1" speed="13.89" disallow="tram rail_urban rail rail_electric rail_fast ship" oneway="0"/>
    <type id="highway.unsurfaced" priority="1" numLanes="1" speed="8.33" disallow="tram rail_urban rail rail_electric rail_fast ship" oneway="0"/>
    <type id="railway.highspeed" priority="21" numLanes="1" speed="69.44" allow="rail_fast" oneway="1"/>
    <type id="railway.light_rail" priority="19" numLanes="1" speed="27.78" allow="rail_urban" oneway="1"/>
    <type id="railway.preserved" priority="16" numLanes="1" speed="27.78" allow="rail" oneway="1"/>
    <type id="railway.rail" priority="20" numLanes="1" speed="44.44" allow="rail" oneway="1"/>
    <type id="railway.subway" priority="18" numLanes="1" speed="27.78" allow="rail_urban" oneway="1"/>
    <type id="railway.tram" priority="17" numLanes="1" speed="13.89" allow="tram" oneway="1"/>

    <edge id=":124811101#1-AddedOffRampNode_0" function="internal">
        <lane id=":124811101#1-AddedOffRampNode_0_0" index="0" disallow="tram rail_urban rail rail_electric rail_fast ship" speed="27.78" length="8.27" shape="1957.58,2904.17 1959.91,2905.09 1961.80,2905.01 1963.69,2904.93 1966.03,2905.85"/>
        <lane id=":124811101#1-AddedOffRampNode_0_1" index="1" disallow="tram rail_urban rail rail_electric rail_fast ship" speed="27.78" length="8.27" shape="1957.58,2904.17 1964.28,2908.53"/>
        <lane id=":124811101#1-AddedOffRampNode_0_2" index="2" disallow="tram rail_urban rail rail_electric rail_fast ship" speed="27.78" length="8.27" shape="1955.83,2906.85 1962.53,2911.21"/>
    </edge>
    <edge id=":1387891044_0" function="internal">
        <lane id=":1387891044_0_0" index="0" disallow="tram rail_urban rail rail_electric rail_fast ship" speed="7.55" length="17.48" shape="1460.69,1741.14 1461.26,1737.29 1463.63,1735.50 1467.81,1735.75 1473.81,1738.07"/>
    </edge>
    <edge id=":1387891044_1" function="internal">
        <lane id=":1387891044_1_0" index="0" disallow="tram rail_urban rail rail_electric rail_fast ship" speed="3.65" length="4.67" shape="1463.89,1740.91 1464.60,1739.66 1465.37,1739.20 1466.20,1739.55 1467.08,1740.69"/>
    </edge>
    <edge id=":1387891130_0" function="internal">
        <lane id=":1387891130_0_0" index="0" disallow="tram rail_urban rail rail_electric rail_fast ship" speed="6.92" length="9.57" shape="1566.03,2669.18 1565.22,2666.87 1563.78,2665.29 1561.69,2664.44 1558.97,2664.32"/>
    </edge>
    <edge id=":1387891130_1" function="internal">
        <lane id=":1387891130_1_0" index="0" disallow="tram rail_urban rail rail_electric rail_fast ship" speed="16.67" length="14.45" shape="1566.03,2669.18 1563.40,2654.99"/>
        <lane id=":1387891130_1_1" index="1" disallow="tram rail_urban rail rail_electric rail_fast ship" speed="16.67" length="14.45" shape="1569.18,2668.61 1566.54,2654.40"/>
    </edge>
    <edge id=":1387891130_3" function="internal">
        <lane id=":1387891130_3_0" index="0" disallow="tram rail_urban rail rail_electric rail_fast ship" speed="3.65" length="1.44" shape="1569.18,2668.61 1569.75,2667.28"/>
    </edge>
    <edge id=":1387891130_11" function="internal">
        <lane id=":1387891130_11_0" index="0" disallow="tram rail_urban rail rail_electric rail_fast ship" speed="3.65" length="3.23" shape="1569.75,2667.28 1570.47,2666.75 1571.32,2667.00 1572.33,2668.03"/>
    </edge>
    <edge id=":1387891130_4" function="internal">
        <lane id=":1387891130_4_0" index="0" disallow="tram rail_urban rail rail_electric rail_fast ship" speed="16.67" length="14.48" shape="1572.83,2653.22 1575.48,2667.46"/>
        <lane id=":1387891130_4_1" index="1" disallow="tram rail_urban rail rail_electric rail_fast ship" speed="16.67" length="14.48" shape="1569.69,2653.81 1572.33,2668.03"/>
    </edge>
    <edge id=":1387891130_6" function="internal">
        <lane id=":1387891130_6_0" index="0" disallow="tram rail_urban rail rail_electric rail_fast ship" speed="8.50" length="3.91" shape="1569.69,2653.81 1569.69,2657.72"/>
    </edge>
    <edge id=":1387891130_7" function="internal">
        <lane id=":1387891130_7_0" index="0" disallow="tram rail_urban rail rail_electric rail_fast ship" speed="3.65" length="1.44" shape="1569.69,2653.81 1569.12,2655.13"/>
    </edge>
    <edge id=":1387891130_12" function="internal">
        <lane id=":1387891130_12_0" index="0" disallow="tram rail_urban rail rail_electric rail_fast ship" speed="8.50" length="13.54" shape="1569.69,2657.72 1569.69,2658.02 1567.90,2661.18 1564.33,2663.28 1558.97,2664.32"/>
    </edge>
    <edge id=":1387891130_13" function="internal">
        <lane id=":1387891130_13_0" index="0" disallow="tram rail_urban rail rail_electric rail_fast ship" speed="3.65" length="3.23" shape="1569.12,2655.13 1568.41,2655.67 1567.55,2655.43 1566.54,2654.40"/>
    </edge>
    <edge id=":1387891130_8" function="internal">
        <lane id=":1387891130_8_0" index="0" disallow="tram rail_urban rail rail_electric rail_fast ship" speed="6.29" length="9.04" shape="1558.71,2661.13 1561.16,2660.57 1562.76,2659.36 1563.50,2657.50 1563.40,2654.99"/>
    </edge>
    <edge id=":1387891130_9" function="internal">
        <lane id=":1387891130_9_0" index="0" disallow="tram rail_urban rail rail_electric rail_fast ship" speed="9.01" length="16.89" shape="1558.71,2661.13 1564.12,2661.19 1568.20,2662.36 1570.93,2664.64 1572.33,2668.03"/>
    </edge>
    <edge id=":1387891130_10" function="internal">
        <lane id=":1387891130_10_0" index="0" disallow="tram rail_urban rail rail_electric rail_fast ship" speed="3.65" length="4.67" shape="1558.71,2661.13 1559.97,2661.83 1560.43,2662.60 1560.10,2663.43 1558.97,2664.32"/>
    </edge>
    <edge id=":1387904545_0" function="internal">
        <lane id=":1387904545_0_0" index="0" disallow="tram rail_urban rail rail_electric rail_fast ship" speed="19.45" length="4.28" shape="1637.97,2968.64 1638.18,2969.90 1638.27,2970.76 1638.31,2971.63 1638.36,2972.90"/>
    </edge>
    <edge id=":1387904545_1" function="internal">
        <lane id=":1387904545_1_0" index="0" disallow="tram rail_urban rail rail_electric rail_fast ship" speed="16.67" length="3.64" shape="1634.82,2969.22 1635.57,2973.02"/>
        <lane id=":1387904545_1_1" index="1" disallow="tram rail_urban rail rail_electric rail_fast ship" speed="16.67" length="3.64" shape="1631.68,2969.80 1632.33,2973.15"/>
    </edge>
    <edge id=":1387904547_0" function="internal">
        <lane id=":1387904547_0_0" index="0" disallow="tram rail_urban rail rail_electric rail_fast ship" speed="5.33" length="9.58" shape="1646.94,3031.21 1647.85,3034.10 1649.06,3035.12 1650.56,3034.27 1652.35,3031.55"/>
    </edge>
    <edge id=":1387904547_1" function="internal">
        <lane id=":1387904547_1_0" index="0" disallow="tram rail_urban rail rail_electric rail_fast ship" speed="9.81" length="20.07" shape="1646.94,3031.21 1648.80,3038.23 1651.13,3043.14 1653.95,3045.97 1657.25,3046.70"/>
    </edge>
    <edge id=":1387904547_2" function="internal">
        <lane id=":1387904547_2_0" index="0" disallow="tram rail_urban rail rail_electric rail_fast ship" speed="16.67" length="25.93" shape="1646.94,3031.21 1648.26,3037.92 1649.50,3043.83 1650.98,3049.67 1653.03,3056.18"/>
        <lane id=":1387904547_2_1" index="1" disallow="tram rail_urban rail rail_electric rail_fast ship" speed="16.67" length="25.93" shape="1643.80,3031.84 1645.14,3038.62 1646.42,3044.66 1647.94,3050.65 1650.01,3057.22"/>
    </edge>
    <edge id=":1387904547_4" function="internal">
        <lane id=":1387904547_4_0" index="0" disallow="tram rail_urban rail rail_electric rail_fast ship" speed="12.98" length="20.48" shape="1643.11,3048.21 1645.50,3047.01 1648.37,3043.97 1651.71,3039.10 1655.53,3032.39"/>
    </edge>
    <edge id=":1387904547_5" function="internal">
        <lane id=":1387904547_5_0" index="0" disallow="tram rail_urban rail rail_electric rail_fast ship" speed="20.84" length="14.15" shape="1643.11,3048.21 1657.25,3046.70"/>
        <lane id=":1387904547_5_1" index="1" disallow="tram rail_urban rail rail_electric rail_fast ship" speed="20.84" length="14.15" shape="1643.54,3051.39 1657.54,3049.88"/>
    </edge>
    <edge id=":1387904547_7" function="internal">
        <lane id=":1387904547_7_0" index="0" disallow="tram rail_urban rail rail_electric rail_fast ship" speed="7.16" length="2.86" shape="1643.54,3051.39 1645.54,3051.53 1646.28,3051.97"/>
    </edge>
    <edge id=":1387904547_8" function="internal">
        <lane id=":1387904547_8_0" index="0" disallow="tram rail_urban rail rail_electric rail_fast ship" speed="7.16" length="6.61" shape="1646.28,3051.97 1647.28,3052.56 1648.77,3054.45 1650.01,3057.22"/>
    </edge>
    <edge id=":1387904574_0" function="internal">
        <lane id=":1387904574_0_0" index="0" disallow="tram rail_urban rail rail_electric rail_fast ship" speed="6.25" length="9.05" shape="1662.17,3066.18 1659.71,3066.73 1658.12,3067.94 1657.40,3069.80 1657.55,3072.32"/>
    </edge>
    <edge id=":1387904574_1" function="internal">
        <lane id=":1387904574_1_0" index="0" disallow="tram rail_urban rail rail_electric rail_fast ship" speed="27.78" length="14.94" shape="1662.17,3066.18 1647.32,3067.47"/>
        <lane id=":1387904574_1_1" index="1" disallow="tram rail_urban rail rail_electric rail_fast ship" speed="27.78" length="14.94" shape="1661.93,3062.99 1647.01,3064.29"/>
    </edge>
    <edge id=":1387904574_3" function="internal">
        <lane id=":1387904574_3_0" index="0" disallow="tram rail_urban rail rail_electric rail_fast ship" speed="16.67" length="15.68" shape="1653.33,3057.03 1654.85,3061.49 1655.81,3064.58 1656.58,3067.71 1657.55,3072.32"/>
        <lane id=":1387904574_3_1" index="1" disallow="tram rail_urban rail rail_electric rail_fast ship" speed="16.67" length="15.68" shape="1650.30,3058.07 1651.79,3062.42 1652.72,3065.42 1653.47,3068.48 1654.42,3072.97"/>
    </edge>
    <edge id=":1387904574_5" function="internal">
        <lane id=":1387904574_5_0" index="0" disallow="tram rail_urban rail rail_electric rail_fast ship" speed="5.89" length="4.49" shape="1650.30,3058.07 1650.83,3060.60 1650.46,3062.48"/>
    </edge>
    <edge id=":1387904574_6" function="internal">
        <lane id=":1387904574_6_0" index="0" disallow="tram rail_urban rail rail_electric rail_fast ship" speed="5.89" length="4.02" shape="1650.46,3062.48 1649.19,3063.71 1647.01,3064.29"/>
    </edge>
    <edge id=":1387904583_0" function="internal">
        <lane id=":1387904583_0_0" index="0" disallow="tram rail_urban rail rail_electric rail_fast ship" speed="19.01" length="14.77" shape="1678.41,2986.50 1681.60,2985.18 1684.55,2983.91 1687.46,2981.96 1690.55,2978.56"/>
    </edge>
    <edge id=":1387904583_1" function="internal">
        <lane id=":1387904583_1_0" index="0" disallow="tram rail_urban rail rail_electric rail_fast ship" speed="27.78" length="14.91" shape="1681.52,2990.40 1690.55,2978.56"/>
        <lane id=":1387904583_1_1" index="1" disallow="tram rail_urban rail rail_electric rail_fast ship" speed="27.78" length="14.91" shape="1684.06,2992.35 1693.12,2980.47"/>
    </edge>
    <edge id=":1387909161_0" function="internal">
        <lane id=":1387909161_0_0" index="0" disallow="tram rail_urban rail rail_electric rail_fast ship" speed="6.01" length="9.08" shape="1561.05,2510.84 1558.47,2511.03 1556.79,2512.01 1556.01,2513.80 1556.14,2516.39"/>
    </edge>
    <edge id=":1387909161_1" function="internal">
        <lane id=":1387909161_1_0" index="0" disallow="tram rail_urban rail rail_electric rail_fast ship" speed="11.11" length="10.70" shape="1561.05,2510.84 1550.36,2510.43"/>
    </edge>
    <edge id=":1387909161_2" function="internal">
        <lane id=":1387909161_2_0" index="0" disallow="tram rail_urban rail rail_electric rail_fast ship" speed="11.11" length="10.56" shape="1554.37,2505.97 1556.14,2516.39"/>
    </edge>
    <edge id=":1387909161_3" function="internal">
        <lane id=":1387909161_3_0" index="0" disallow="tram rail_urban rail rail_electric rail_fast ship" speed="5.60" length="7.06" shape="1554.37,2505.97 1554.35,2507.91 1553.67,2509.30 1552.35,2510.14 1550.36,2510.43"/>
    </edge>
    <edge id=":1387923990_0" function="internal">
        <lane id=":1387923990_0_0" index="0" disallow="tram rail_urban rail rail_electric rail_fast ship" speed="6.07" length="9.07" shape="1963.43,2616.00 1964.67,2613.75 1964.77,2611.79 1963.74,2610.12 1961.56,2608.75"/>
    </edge>
    <edge id=":1387923990_1" function="internal">
        <lane id=":1387923990_1_0" index="0" disallow="tram rail_urban rail rail_electric rail_fast ship" speed="27.78" length="9.60" shape="1963.43,2616.00 1969.18,2608.33"/>
        <lane id=":1387923990_1_1" index="1" disallow="tram rail_urban rail rail_electric rail_fast ship" speed="27.78" length="9.60" shape="1965.99,2617.93 1971.75,2610.23"/>
    </edge>
    <edge id=":1387923995_0" function="internal">
        <lane id=":1387923995_0_0" index="0" disallow="tram rail_urban rail rail_electric rail_fast ship" speed="27.78" length="6.49" shape="1869.41,2820.66 1868.18,2822.14 1867.23,2823.04 1866.18,2823.85 1864.67,2825.05"/>
        <lane id=":1387923995_0_1" index="1" disallow="tram rail_urban rail rail_electric rail_fast ship" speed="27.78" length="5.76" shape="1866.88,2818.70 1865.79,2820.01 1864.93,2820.80 1863.99,2821.51 1862.65,2822.57"/>
    </edge>
    <edge id=":1387923995_2" function="internal">
        <lane id=":1387923995_2_0" index="0" disallow="tram rail_urban rail rail_electric rail_fast ship" speed="27.78" length="4.40" shape="1864.35,2816.75 1861.26,2820.87"/>
        <lane id=":1387923995_2_1" index="1" disallow="tram rail_urban rail rail_electric rail_fast ship" speed="27.78" length="4.40" shape="1861.82,2814.79 1859.17,2818.31"/>
        <lane id=":1387923995_2_2" index="2" disallow="tram rail_urban rail rail_electric rail_fast ship" speed="27.78" length="4.40" shape="1859.28,2812.83 1857.09,2815.74"/>
    </edge>
    <edge id=":1387923997_0" function="internal">
        <lane id=":1387923997_0_0" index="0" disallow="tram rail_urban rail rail_electric rail_fast ship" speed="13.89" length="11.19" shape="1855.02,3051.28 1843.88,3052.21"/>
        <lane id=":1387923997_0_1" index="1" disallow="tram rail_urban rail rail_electric rail_fast ship" speed="13.89" length="11.19" shape="1854.76,3048.09 1843.61,3049.03"/>
    </edge>
    <edge id=":1387923997_2" function="internal">
        <lane id=":1387923997_2_0" index="0" disallow="tram rail_urban rail rail_electric rail_fast ship" speed="6.44" length="9.03" shape="1848.57,3042.93 1848.51,3045.41 1847.66,3047.26 1846.03,3048.46 1843.61,3049.03"/>
    </edge>
    <edge id=":1387924010_0" function="internal">
        <lane id=":1387924010_0_0" index="0" disallow="tram rail_urban rail rail_electric rail_fast ship" speed="7.81" length="6.12" shape="2019.78,3010.36 2020.69,3011.23 2022.08,3012.49 2023.52,3013.59 2024.60,3014.03"/>
    </edge>
    <edge id=":1387924010_1" function="internal">
        <lane id=":1387924010_1_0" index="0" disallow="tram rail_urban rail rail_electric rail_fast ship" speed="13.89" length="5.93" shape="2018.70,3014.54 2024.60,3014.03"/>
        <lane id=":1387924010_1_1" index="1" disallow="tram rail_urban rail rail_electric rail_fast ship" speed="13.89" length="5.93" shape="2018.98,3017.72 2024.89,3017.21"/>
    </edge>
    <edge id=":1387924014_0" function="internal">
        <lane id=":1387924014_0_0" index="0" disallow="tram rail_urban rail rail_electric rail_fast ship" speed="13.89" length="7.25" shape="1830.17,3028.09 1832.35,3027.95 1833.86,3027.97 1835.36,3028.05 1837.56,3028.10"/>
        <lane id=":1387924014_0_1" index="1" disallow="tram rail_urban rail rail_electric rail_fast ship" speed="13.89" length="7.25" shape="1830.45,3031.28 1832.55,3031.15 1834.00,3031.17 1835.44,3031.25 1837.55,3031.30"/>
    </edge>
    <edge id=":1387924014_2" function="internal">
        <lane id=":1387924014_2_0" index="0" disallow="tram rail_urban rail rail_electric rail_fast ship" speed="16.70" length="6.36" shape="1830.73,3034.47 1832.61,3034.28 1833.92,3034.21 1835.20,3034.37 1837.01,3034.87"/>
    </edge>
    <edge id=":1387924017_0" function="internal">
        <lane id=":1387924017_0_0" index="0" disallow="tram rail_urban rail rail_electric rail_fast ship" speed="16.83" length="5.98" shape="2013.64,2987.80 2014.18,2989.47 2014.36,2990.67 2014.34,2991.90 2014.26,2993.68"/>
    </edge>
    <edge id=":1387924017_1" function="internal">
        <lane id=":1387924017_1_0" index="0" disallow="tram rail_urban rail rail_electric rail_fast ship" speed="23.65" length="4.21" shape="2010.64,2988.93 2011.12,2990.27 2011.38,2991.22 2011.49,2992.20 2011.57,2993.62"/>
        <lane id=":1387924017_1_1" index="1" disallow="tram rail_urban rail rail_electric rail_fast ship" speed="20.46" length="4.21" shape="2007.65,2990.06 2008.01,2991.06 2008.21,2991.77 2008.30,2992.49 2008.36,2993.56"/>
    </edge>
    <edge id=":1387955828_0" function="internal">
        <lane id=":1387955828_0_0" index="0" disallow="tram rail_urban rail rail_electric rail_fast ship" speed="27.78" length="6.70" shape="1723.10,2930.46 1724.13,2928.71 1724.81,2927.49 1725.53,2926.30 1726.72,2924.65"/>
        <lane id=":1387955828_0_1" index="1" disallow="tram rail_urban rail rail_electric rail_fast ship" speed="27.78" length="6.70" shape="1725.81,2932.15 1726.81,2930.47 1727.45,2929.30 1728.14,2928.16 1729.27,2926.58"/>
    </edge>
    <edge id=":1387955828_2" function="internal">
        <lane id=":1387955828_2_0" index="0" disallow="tram rail_urban rail rail_electric rail_fast ship" speed="14.16" length="5.76" shape="1729.19,2933.54 1729.63,2931.90 1730.10,2930.83 1730.78,2929.86 1731.82,2928.51"/>
    </edge>
    <edge id=":1387998676_0" function="internal">
        <lane id=":1387998676_0_0" index="0" disallow="tram rail_urban rail rail_electric rail_fast ship" speed="6.48" length="9.03" shape="878.06,2921.31 875.64,2921.88 874.00,2923.08 873.12,2924.92 873.02,2927.40"/>
    </edge>
    <edge id=":1387998676_1" function="internal">
        <lane id=":1387998676_1_0" index="0" disallow="tram rail_urban rail rail_electric rail_fast ship" speed="3.65" length="4.67" shape="878.06,2921.31 876.79,2920.62 876.32,2919.86 876.65,2919.03 877.78,2918.13"/>
    </edge>
    <edge id=":1387998676_2" function="internal">
        <lane id=":1387998676_2_0" index="0" disallow="tram rail_urban rail rail_electric rail_fast ship" speed="6.58" length="9.11" shape="871.54,2913.08 872.15,2915.47 873.39,2917.11 875.27,2918.00 877.78,2918.13"/>
    </edge>
    <edge id=":1387998676_3" function="internal">
        <lane id=":1387998676_3_0" index="0" disallow="tram rail_urban rail rail_electric rail_fast ship" speed="13.89" length="14.39" shape="871.54,2913.08 873.02,2927.40"/>
        <lane id=":1387998676_3_1" index="1" disallow="tram rail_urban rail rail_electric rail_fast ship" speed="13.89" length="14.39" shape="868.36,2913.42 869.84,2927.72"/>
    </edge>
    <edge id=":1388054721_0" function="internal">
        <lane id=":1388054721_0_0" index="0" disallow="tram rail_urban rail rail_electric rail_fast ship" speed="6.51" length="9.02" shape="1582.06,2764.38 1581.27,2762.04 1579.92,2760.51 1578.01,2759.80 1575.54,2759.90"/>
    </edge>
    <edge id=":1388054721_1" function="internal">
        <lane id=":1388054721_1_0" index="0" disallow="tram rail_urban rail rail_electric rail_fast ship" speed="16.67" length="14.25" shape="1582.06,2764.38 1579.72,2750.26"/>
        <lane id=":1388054721_1_1" index="1" disallow="tram rail_urban rail rail_electric rail_fast ship" speed="16.67" length="14.25" shape="1585.21,2763.79 1582.89,2749.80"/>
    </edge>
    <edge id=":1388054721_3" function="internal">
        <lane id=":1388054721_3_0" index="0" disallow="tram rail_urban rail rail_electric rail_fast ship" speed="3.65" length="1.44" shape="1585.21,2763.79 1585.77,2762.46"/>
    </edge>
    <edge id=":1388054721_11" function="internal">
        <lane id=":1388054721_11_0" index="0" disallow="tram rail_urban rail rail_electric rail_fast ship" speed="3.65" length="3.23" shape="1585.77,2762.46 1586.49,2761.92 1587.35,2762.17 1588.35,2763.20"/>
    </edge>
    <edge id=":1388054721_4" function="internal">
        <lane id=":1388054721_4_0" index="0" disallow="tram rail_urban rail rail_electric rail_fast ship" speed="16.67" length="13.98" shape="1589.22,2748.89 1591.50,2762.61"/>
        <lane id=":1388054721_4_1" index="1" disallow="tram rail_urban rail rail_electric rail_fast ship" speed="16.67" length="13.98" shape="1586.06,2749.35 1588.35,2763.20"/>
    </edge>
    <edge id=":1388054721_6" function="internal">
        <lane id=":1388054721_6_0" index="0" disallow="tram rail_urban rail rail_electric rail_fast ship" speed="8.77" length="3.33" shape="1586.06,2749.35 1585.88,2752.67"/>
    </edge>
    <edge id=":1388054721_7" function="internal">
        <lane id=":1388054721_7_0" index="0" disallow="tram rail_urban rail rail_electric rail_fast ship" speed="3.65" length="1.44" shape="1586.06,2749.35 1585.43,2750.65"/>
    </edge>
    <edge id=":1388054721_12" function="internal">
        <lane id=":1388054721_12_0" index="0" disallow="tram rail_urban rail rail_electric rail_fast ship" speed="8.77" length="13.39" shape="1585.88,2752.67 1585.85,2753.15 1584.03,2756.18 1580.59,2758.43 1575.54,2759.90"/>
    </edge>
    <edge id=":1388054721_13" function="internal">
        <lane id=":1388054721_13_0" index="0" disallow="tram rail_urban rail rail_electric rail_fast ship" speed="3.65" length="3.23" shape="1585.43,2750.65 1584.70,2751.16 1583.85,2750.87 1582.89,2749.80"/>
    </edge>
    <edge id=":1388054721_8" function="internal">
        <lane id=":1388054721_8_0" index="0" disallow="tram rail_urban rail rail_electric rail_fast ship" speed="6.62" length="9.11" shape="1574.96,2756.76 1577.34,2755.96 1578.92,2754.62 1579.72,2752.71 1579.72,2750.26"/>
    </edge>
    <edge id=":1388054721_9" function="internal">
        <lane id=":1388054721_9_0" index="0" disallow="tram rail_urban rail rail_electric rail_fast ship" speed="8.67" length="16.82" shape="1574.96,2756.76 1580.21,2756.34 1584.20,2757.28 1586.91,2759.56 1588.35,2763.20"/>
    </edge>
    <edge id=":1388054721_10" function="internal">
        <lane id=":1388054721_10_0" index="0" disallow="tram rail_urban rail rail_electric rail_fast ship" speed="3.65" length="4.67" shape="1574.96,2756.76 1576.28,2757.32 1576.82,2758.04 1576.58,2758.90 1575.54,2759.90"/>
    </edge>
    <edge id=":1388089060_0" function="internal">
        <lane id=":1388089060_0_0" index="0" disallow="tram rail_urban rail rail_electric rail_fast ship" speed="6.47" length="9.03" shape="857.17,2723.76 854.76,2724.33 853.12,2725.54 852.26,2727.38 852.16,2729.86"/>
    </edge>
    <edge id=":1388089060_1" function="internal">
        <lane id=":1388089060_1_0" index="0" disallow="tram rail_urban rail rail_electric rail_fast ship" speed="3.65" length="4.67" shape="857.17,2723.76 855.91,2723.07 855.44,2722.31 855.76,2721.48 856.88,2720.57"/>
    </edge>
    <edge id=":1388089060_2" function="internal">
        <lane id=":1388089060_2_0" index="0" disallow="tram rail_urban rail rail_electric rail_fast ship" speed="6.57" length="9.11" shape="850.65,2715.54 851.26,2717.93 852.50,2719.57 854.38,2720.45 856.88,2720.57"/>
    </edge>
    <edge id=":1388089060_3" function="internal">
        <lane id=":1388089060_3_0" index="0" disallow="tram rail_urban rail rail_electric rail_fast ship" speed="13.89" length="14.40" shape="850.65,2715.54 852.16,2729.86"/>
        <lane id=":1388089060_3_1" index="1" disallow="tram rail_urban rail rail_electric rail_fast ship" speed="13.89" length="14.40" shape="847.47,2715.87 848.98,2730.20"/>
    </edge>
    <edge id=":1388089061_0" function="internal">
        <lane id=":1388089061_0_0" index="0" disallow="tram rail_urban rail rail_electric rail_fast ship" speed="3.65" length="4.67" shape="362.06,2762.62 360.80,2761.91 360.33,2761.15 360.67,2760.32 361.80,2759.42"/>
    </edge>
    <edge id=":1388089063_0" function="internal">