<?xml version="1.0" encoding="UTF-8"?>

<!-- generated on 2023-03-18 14:31:19 by Eclipse SUMO netedit Version 1.16.0
<configuration xmlns:xsi="http://www.w3.org/2001/XMLSchema-instance" xsi:noNamespaceSchemaLocation="http://sumo.dlr.de/xsd/netconvertConfiguration.xsd">

    <input>
        <sumo-net-file value="/home/luis/Documents/cinvestav/InteligenciaComputacional/proyecto/ej2.net.xml"/>
    </input>

    <output>
        <output-file value="/home/luis/Documents/cinvestav/InteligenciaComputacional/proyecto/ej2.net.xml"/>
    </output>

    <processing>
        <offset.disable-normalization value="true"/>
    </processing>

    <junctions>
        <no-turnarounds value="true"/>
    </junctions>

    <netedit>
        <new-network value="false"/>
    </netedit>

</configuration>
-->

<net version="1.16" junctionCornerDetail="5" limitTurnSpeed="5.50" xmlns:xsi="http://www.w3.org/2001/XMLSchema-instance" xsi:noNamespaceSchemaLocation="http://sumo.dlr.de/xsd/net_file.xsd">

    <location netOffset="0.00,0.00" convBoundary="-41.33,19.58,83.10,87.14" origBoundary="10000000000.00,10000000000.00,-10000000000.00,-10000000000.00" projParameter="!"/>

    <edge id=":J2_0" function="internal">
        <lane id=":J2_0_0" index="0" speed="5.70" length="11.32" shape="-29.72,57.36 -32.11,59.62 -32.33,61.28 -30.38,62.34 -26.26,62.81"/>
    </edge>
    <edge id=":J2_1" function="internal">
        <lane id=":J2_1_0" index="0" speed="6.75" length="14.34" shape="-29.72,57.36 -32.63,60.23 -33.15,62.80 -31.28,65.09 -27.04,67.08"/>
    </edge>
    <edge id=":J3_0" function="internal">
        <lane id=":J3_0_0" index="0" speed="6.79" length="9.02" shape="24.11,59.05 24.69,61.41 25.88,63.12 27.67,64.16 30.07,64.54"/>
    </edge>
    <edge id=":J3_1" function="internal">
        <lane id=":J3_1_0" index="0" speed="7.37" length="12.35" shape="24.11,59.05 23.67,62.93 21.29,64.18 16.98,62.81 15.95,62.15"/>
    </edge>
    <edge id=":J3_4" function="internal">
        <lane id=":J3_4_0" index="0" speed="7.37" length="6.18" shape="15.95,62.15 10.74,58.82"/>
    </edge>
    <edge id=":J3_2" function="internal">
        <lane id=":J3_2_0" index="0" speed="5.47" length="10.58" shape="8.96,63.95 12.51,63.74 13.98,62.81 13.39,61.17 10.74,58.82"/>
    </edge>
    <edge id=":J3_3" function="internal">
        <lane id=":J3_3_0" index="0" speed="13.89" length="21.12" shape="8.96,63.95 30.07,64.54"/>
    </edge>
    <edge id=":J4_0" function="internal">
        <lane id=":J4_0_0" index="0" speed="7.89" length="13.98" shape="70.10,65.32 75.09,65.06 78.65,64.08 80.79,62.36 81.50,59.91"/>
    </edge>
    <edge id=":J4_1" function="internal">
        <lane id=":J4_1_0" index="0" speed="9.61" length="15.46" shape="70.84,69.85 75.50,67.80 78.84,65.46 80.83,62.83 81.50,59.91"/>
    </edge>
    <edge id=":J5_0" function="internal">
        <lane id=":J5_0_0" index="0" speed="3.90" length="2.59" shape="81.50,22.79 81.40,22.09 81.10,21.59 80.60,21.29 79.89,21.19"/>
    </edge>
    <edge id=":J6_0" function="internal">
        <lane id=":J6_0_0" index="0" speed="6.35" length="9.19" shape="26.09,21.39 23.61,21.76 21.92,22.88 21.03,24.74 20.93,27.33"/>
    </edge>
    <edge id=":J6_1" function="internal">
        <lane id=":J6_1_0" index="0" speed="13.55" length="12.04" shape="26.09,21.39 22.78,21.48 20.06,21.89 17.53,22.85 14.77,24.60"/>
    </edge>
    <edge id=":J6_2" function="internal">
        <lane id=":J6_2_0" index="0" speed="7.44" length="4.09" shape="14.42,18.64 16.92,18.96 18.13,19.95"/>
    </edge>
    <edge id=":J6_3" function="internal">
        <lane id=":J6_3_0" index="0" speed="5.75" length="5.54" shape="14.42,18.64 18.13,18.62 19.43,19.61 19.33,19.78"/>
    </edge>
    <edge id=":J6_4" function="internal">
        <lane id=":J6_4_0" index="0" speed="7.44" length="8.09" shape="18.13,19.95 18.83,20.52 20.17,23.31 20.93,27.33"/>
    </edge>
    <edge id=":J6_5" function="internal">
        <lane id=":J6_5_0" index="0" speed="5.75" length="6.72" shape="19.33,19.78 18.30,21.60 14.77,24.60"/>
    </edge>
    <edge id=":J7_0" function="internal">
        <lane id=":J7_0_0" index="0" speed="4.16" length="5.03" shape="-33.23,26.44 -34.42,25.34 -34.69,24.50 -34.03,23.90 -32.44,23.56"/>
    </edge>
    <edge id=":J8_0" function="internal">
        <lane id=":J8_0_0" index="0" speed="4.37" length="1.09" shape="26.61,85.26 26.92,85.36 27.14,85.39 27.36,85.35 27.66,85.25"/>
    </edge>

    <edge id="E1" from="J2" to="J3" priority="-1">
        <lane id="E1_0" index="0" speed="13.89" length="35.24" shape="-26.26,62.81 8.96,63.95"/>
    </edge>
    <edge id="E10" from="J8" to="J4" priority="-1">
        <lane id="E10_0" index="0" speed="13.89" length="45.84" shape="27.66,85.25 70.84,69.85"/>
    </edge>
    <edge id="E2" from="J3" to="J4" priority="-1">
        <lane id="E2_0" index="0" speed="13.89" length="40.03" shape="30.07,64.54 70.10,65.32"/>
    </edge>
    <edge id="E3" from="J4" to="J5" priority="-1">
        <lane id="E3_0" index="0" speed="13.89" length="37.12" shape="81.50,59.91 81.50,22.79"/>
    </edge>
    <edge id="E4" from="J5" to="J6" priority="-1">
        <lane id="E4_0" index="0" speed="13.89" length="53.80" shape="79.89,21.19 26.09,21.39"/>
    </edge>
    <edge id="E5" from="J6" to="J3" priority="-1">
        <lane id="E5_0" index="0" speed="13.89" length="31.87" shape="20.93,27.33 24.11,59.05"/>
    </edge>
    <edge id="E6" from="J3" to="J7" priority="-1">
        <lane id="E6_0" index="0" speed="13.89" length="54.60" shape="10.74,58.82 -33.23,26.44"/>
    </edge>
    <edge id="E7" from="J7" to="J6" priority="-1">
        <lane id="E7_0" index="0" speed="13.89" length="47.12" shape="-32.44,23.56 14.42,18.64"/>
    </edge>
    <edge id="E8" from="J6" to="J2" priority="-1">
        <lane id="E8_0" index="0" speed="13.89" length="55.25" shape="14.77,24.60 -29.72,57.36"/>
    </edge>
    <edge id="E9" from="J2" to="J8" priority="-1">
        <lane id="E9_0" index="0" speed="13.89" length="56.65" shape="-27.04,67.08 26.61,85.26"/>
    </edge>

    <junction id="J2" type="priority" x="-41.33" y="63.92" incLanes="E8_0" intLanes=":J2_0_0 :J2_1_0" shape="-27.55,68.59 -26.52,65.56 -26.31,64.41 -26.21,61.21 -29.07,60.84 -29.74,60.47 -29.92,59.99 -29.60,59.38 -28.78,58.65 -30.67,56.07 -33.55,58.60 -35.06,60.95 -35.22,63.13 -34.02,65.12 -31.46,66.95">
        <request index="0" response="00" foes="00" cont="0"/>
        <request index="1" response="00" foes="00" cont="0"/>
    </junction>
    <junction id="J3" type="priority" x="23.21" y="66.01" incLanes="E5_0 E1_0" intLanes=":J3_0_0 :J3_4_0 :J3_2_0 :J3_3_0" shape="30.04,66.14 30.11,62.94 27.84,62.46 27.01,61.89 26.37,61.11 25.94,60.10 25.71,58.89 22.52,59.21 21.62,62.04 20.16,62.19 18.01,61.48 15.19,59.93 11.69,57.53 9.79,60.11 11.14,61.41 11.21,61.85 10.88,62.16 10.15,62.32 9.02,62.35 8.91,65.55">
        <request index="0" response="0000" foes="1000" cont="0"/>
        <request index="1" response="0100" foes="0100" cont="1"/>
        <request index="2" response="0000" foes="0010" cont="0"/>
        <request index="3" response="0001" foes="0001" cont="0"/>
    </junction>
    <junction id="J4" type="priority" x="83.10" y="67.17" incLanes="E2_0 E10_0" intLanes=":J4_0_0 :J4_1_0" shape="83.10,59.91 79.90,59.91 78.82,62.11 77.46,62.86 75.56,63.38 73.12,63.67 70.13,63.72 70.07,66.92 70.30,68.34 71.38,71.35 74.96,69.87 77.89,68.22 80.17,66.40 81.80,64.41 82.77,62.24">
        <request index="0" response="00" foes="10" cont="0"/>
        <request index="1" response="01" foes="01" cont="0"/>
    </junction>
    <junction id="J5" type="priority" x="83.10" y="19.58" incLanes="E3_0" intLanes=":J5_0_0" shape="79.90,22.79 83.10,22.79 82.74,21.01 82.30,20.39 81.67,19.94 80.87,19.68 79.89,19.59">
        <request index="0" response="0" foes="0" cont="0"/>
    </junction>
    <junction id="J6" type="priority" x="18.56" y="19.81" incLanes="E4_0 E7_0" intLanes=":J6_0_0 :J6_1_0 :J6_4_0 :J6_5_0" shape="19.34,27.49 22.52,27.17 22.73,24.85 23.20,24.04 23.92,23.46 24.89,23.11 26.10,22.99 26.09,19.79 23.52,19.55 21.66,18.94 20.16,18.19 18.66,17.48 16.80,17.03 14.25,17.05 14.59,20.23 16.27,20.39 16.38,20.79 16.01,21.41 15.16,22.25 13.82,23.31 15.71,25.88 17.55,25.01 18.23,25.10 18.76,25.55 19.12,26.34">
        <request index="0" response="0000" foes="0100" cont="0"/>
        <request index="1" response="0000" foes="1100" cont="0"/>
        <request index="2" response="0011" foes="0011" cont="1"/>
        <request index="3" response="0010" foes="0010" cont="1"/>
    </junction>
    <junction id="J7" type="priority" x="-32.28" y="25.15" incLanes="E6_0" intLanes=":J7_0_0" shape="-34.17,27.73 -32.28,25.15 -32.61,21.97 -34.94,22.37 -36.43,22.99 -37.11,23.84 -36.96,24.91 -35.98,26.21">
        <request index="0" response="0" foes="0" cont="0"/>
    </junction>
    <junction id="J8" type="priority" x="27.15" y="87.14" incLanes="E9_0" intLanes=":J8_0_0" shape="28.20,86.76 27.13,83.75 26.10,86.78 26.87,87.00 27.15,87.03 27.44,87.00 27.77,86.91">
        <request index="0" response="0" foes="0" cont="0"/>
    </junction>

    <junction id=":J3_4_0" type="internal" x="15.95" y="62.15" incLanes=":J3_1_0 E1_0" intLanes=":J3_2_0"/>
    <junction id=":J6_4_0" type="internal" x="18.13" y="19.95" incLanes=":J6_2_0 E4_0" intLanes=":J6_0_0 :J6_1_0"/>
    <junction id=":J6_5_0" type="internal" x="19.33" y="19.78" incLanes=":J6_3_0 E4_0" intLanes=":J6_1_0"/>

    <connection from="E1" to="E6" fromLane="0" toLane="0" via=":J3_2_0" dir="r" state="M"/>
    <connection from="E1" to="E2" fromLane="0" toLane="0" via=":J3_3_0" dir="s" state="m"/>
    <connection from="E10" to="E3" fromLane="0" toLane="0" via=":J4_1_0" dir="r" state="m"/>
    <connection from="E2" to="E3" fromLane="0" toLane="0" via=":J4_0_0" dir="r" state="M"/>
    <connection from="E3" to="E4" fromLane="0" toLane="0" via=":J5_0_0" dir="r" state="M"/>
    <connection from="E4" to="E5" fromLane="0" toLane="0" via=":J6_0_0" dir="r" state="M"/>
    <connection from="E4" to="E8" fromLane="0" toLane="0" via=":J6_1_0" dir="s" state="M"/>
    <connection from="E5" to="E2" fromLane="0" toLane="0" via=":J3_0_0" dir="r" state="M"/>
    <connection from="E5" to="E6" fromLane="0" toLane="0" via=":J3_1_0" dir="l" state="m"/>
    <connection from="E6" to="E7" fromLane="0" toLane="0" via=":J7_0_0" dir="l" state="M"/>
    <connection from="E7" to="E5" fromLane="0" toLane="0" via=":J6_2_0" dir="l" state="m"/>
    <connection from="E7" to="E8" fromLane="0" toLane="0" via=":J6_3_0" dir="l" state="m"/>
    <connection from="E8" to="E1" fromLane="0" toLane="0" via=":J2_0_0" dir="r" state="M"/>
    <connection from="E8" to="E9" fromLane="0" toLane="0" via=":J2_1_0" dir="r" state="M"/>
    <connection from="E9" to="E10" fromLane="0" toLane="0" via=":J8_0_0" dir="s" state="M"/>

    <connection from=":J2_0" to="E1" fromLane="0" toLane="0" dir="r" state="M"/>
    <connection from=":J2_1" to="E9" fromLane="0" toLane="0" dir="r" state="M"/>
    <connection from=":J3_0" to="E2" fromLane="0" toLane="0" dir="r" state="M"/>
    <connection from=":J3_1" to="E6" fromLane="0" toLane="0" via=":J3_4_0" dir="l" state="m"/>
    <connection from=":J3_4" to="E6" fromLane="0" toLane="0" dir="l" state="M"/>
    <connection from=":J3_2" to="E6" fromLane="0" toLane="0" dir="r" state="M"/>
    <connection from=":J3_3" to="E2" fromLane="0" toLane="0" dir="s" state="M"/>
    <connection from=":J4_0" to="E3" fromLane="0" toLane="0" dir="r" state="M"/>
    <connection from=":J4_1" to="E3" fromLane="0" toLane="0" dir="r" state="M"/>
    <connection from=":J5_0" to="E4" fromLane="0" toLane="0" dir="r" state="M"/>
    <connection from=":J6_0" to="E5" fromLane="0" toLane="0" dir="r" state="M"/>
    <connection from=":J6_1" to="E8" fromLane="0" toLane="0" dir="s" state="M"/>
    <connection from=":J6_2" to="E5" fromLane="0" toLane="0" via=":J6_4_0" dir="l" state="m"/>
    <connection from=":J6_4" to="E5" fromLane="0" toLane="0" dir="l" state="M"/>
    <connection from=":J6_3" to="E8" fromLane="0" toLane="0" via=":J6_5_0" dir="l" state="m"/>
    <connection from=":J6_5" to="E8" fromLane="0" toLane="0" dir="l" state="M"/>
    <connection from=":J7_0" to="E7" fromLane="0" toLane="0" dir="l" state="M"/>
    <connection from=":J8_0" to="E10" fromLane="0" toLane="0" dir="s" state="M"/>

</net>
