<?xml version="1.0" encoding="UTF-8"?>

<!-- generated on 2023-03-18 14:33:37 by Eclipse SUMO netedit Version 1.16.0
<configuration xmlns:xsi="http://www.w3.org/2001/XMLSchema-instance" xsi:noNamespaceSchemaLocation="http://sumo.dlr.de/xsd/netconvertConfiguration.xsd">

    <input>
        <sumo-net-file value="/home/luis/Documents/cinvestav/InteligenciaComputacional/proyecto/ejemplo.net.xml"/>
    </input>

    <output>
        <output-file value="/home/luis/Documents/cinvestav/InteligenciaComputacional/proyecto/ejemplo.net.xml"/>
    </output>

    <processing>
        <geometry.min-radius.fix.railways value="false"/>
        <geometry.max-grade.fix value="false"/>
        <offset.disable-normalization value="true"/>
        <lefthand value="0"/>
    </processing>

    <junctions>
        <no-turnarounds value="true"/>
        <junctions.corner-detail value="5"/>
        <junctions.limit-turn-speed value="5.50"/>
        <rectangular-lane-cut value="0"/>
    </junctions>

    <pedestrian>
        <walkingareas value="0"/>
    </pedestrian>

</configuration>
-->

<net version="1.16" junctionCornerDetail="5" limitTurnSpeed="5.50" xmlns:xsi="http://www.w3.org/2001/XMLSchema-instance" xsi:noNamespaceSchemaLocation="http://sumo.dlr.de/xsd/net_file.xsd">

    <location netOffset="0.00,0.00" convBoundary="-28.13,16.67,156.10,87.80" origBoundary="-10000000000.00,-10000000000.00,10000000000.00,10000000000.00" projParameter="!"/>

    <edge id=":J0_0" function="internal">
        <lane id=":J0_0_0" index="0" speed="6.35" length="7.59" shape="-24.81,77.02 -26.04,76.53 -26.96,75.31 -27.57,73.36 -27.88,70.68"/>
    </edge>
    <edge id=":J1_0" function="internal">
        <lane id=":J1_0_0" index="0" speed="7.31" length="12.03" shape="63.31,73.74 58.95,75.67 55.77,75.30 53.78,72.63 53.66,71.91"/>
    </edge>
    <edge id=":J1_3" function="internal">
        <lane id=":J1_3_0" index="0" speed="7.31" length="4.30" shape="53.66,71.91 52.96,67.67"/>
    </edge>
    <edge id=":J1_1" function="internal">
        <lane id=":J1_1_0" index="0" speed="6.01" length="10.53" shape="45.61,70.48 48.92,71.78 51.25,71.74 52.59,70.37 52.96,67.67"/>
    </edge>
    <edge id=":J1_2" function="internal">
        <lane id=":J1_2_0" index="0" speed="7.58" length="13.20" shape="44.40,75.25 48.25,74.85 50.96,73.45 52.53,71.06 52.96,67.67"/>
    </edge>
    <edge id=":J2_0" function="internal">
        <lane id=":J2_0_0" index="0" speed="7.83" length="12.35" shape="103.26,42.48 105.59,43.40 107.22,45.38 108.15,48.42 108.37,52.52"/>
    </edge>
    <edge id=":J2_1" function="internal">
        <lane id=":J2_1_0" index="0" speed="5.76" length="11.40" shape="103.26,42.48 106.33,43.36 107.25,44.77 106.02,46.73 102.64,49.23"/>
    </edge>
    <edge id=":J3_0" function="internal">
        <lane id=":J3_0_0" index="0" speed="6.67" length="9.03" shape="52.08,43.94 51.65,41.53 50.55,39.78 48.80,38.69 46.39,38.27"/>
    </edge>
    <edge id=":J3_1" function="internal">
        <lane id=":J3_1_0" index="0" speed="8.81" length="14.32" shape="52.08,43.94 52.95,40.19 55.90,37.85 60.93,36.92 62.52,37.03"/>
    </edge>
    <edge id=":J3_4" function="internal">
        <lane id=":J3_4_0" index="0" speed="8.81" length="5.52" shape="62.52,37.03 68.03,37.39"/>
    </edge>
    <edge id=":J3_2" function="internal">
        <lane id=":J3_2_0" index="0" speed="5.48" length="10.66" shape="67.22,32.07 64.13,33.90 63.24,35.40 64.54,36.56 68.03,37.39"/>
    </edge>
    <edge id=":J3_3" function="internal">
        <lane id=":J3_3_0" index="0" speed="13.89" length="21.84" shape="67.22,32.07 62.76,33.97 56.99,36.04 51.12,37.67 46.39,38.27"/>
    </edge>
    <edge id=":J4_0" function="internal">
        <lane id=":J4_0_0" index="0" speed="10.88" length="8.92" shape="-29.52,38.31 -29.59,35.69 -29.32,33.87 -28.53,32.21 -27.02,30.07"/>
    </edge>
    <edge id=":J4_1" function="internal">
        <lane id=":J4_1_0" index="0" speed="7.90" length="13.41" shape="-29.52,38.31 -27.51,36.92 -22.50,37.40 -16.77,38.94"/>
    </edge>
    <edge id=":J4_4" function="internal">
        <lane id=":J4_4_0" index="0" speed="7.90" length="5.96" shape="-16.77,38.94 -16.43,39.03 -11.23,41.15"/>
    </edge>
    <edge id=":J4_2" function="internal">
        <lane id=":J4_2_0" index="0" speed="5.64" length="12.12" shape="-10.00,36.42 -14.24,36.58 -15.86,37.42 -14.85,38.95 -11.23,41.15"/>
    </edge>
    <edge id=":J4_3" function="internal">
        <lane id=":J4_3_0" index="0" speed="7.69" length="17.22" shape="-10.00,36.42 -15.51,35.75 -21.57,34.23 -26.10,32.23 -26.28,31.80"/>
    </edge>
    <edge id=":J4_5" function="internal">
        <lane id=":J4_5_0" index="0" speed="7.69" length="1.88" shape="-26.28,31.80 -27.02,30.07"/>
    </edge>
    <edge id=":J5_0" function="internal">
        <lane id=":J5_0_0" index="0" speed="6.42" length="9.04" shape="107.60,80.51 107.89,82.98 108.90,84.74 110.64,85.78 113.11,86.10"/>
    </edge>
    <edge id=":J5_1" function="internal">
        <lane id=":J5_1_0" index="0" speed="7.18" length="11.81" shape="107.60,80.51 107.14,84.43 105.99,87.16 104.17,88.69 101.67,89.02"/>
    </edge>
    <edge id=":J6_0" function="internal">
        <lane id=":J6_0_0" index="0" speed="3.92" length="2.28" shape="145.94,85.64 146.54,85.55 147.00,85.29 147.32,84.87 147.50,84.29"/>
    </edge>
    <edge id=":J7_0" function="internal">
        <lane id=":J7_0_0" index="0" speed="3.93" length="2.21" shape="154.12,41.90 154.13,41.31 153.97,40.82 153.62,40.44 153.10,40.16"/>
    </edge>
    <edge id=":J8_0" function="internal">
        <lane id=":J8_0_0" index="0" speed="10.43" length="10.39" shape="97.99,19.26 96.54,19.11 94.41,19.53 91.61,20.51 88.14,22.05"/>
    </edge>
    <edge id=":J8_1" function="internal">
        <lane id=":J8_1_0" index="0" speed="13.89" length="10.86" shape="97.99,19.26 95.05,18.36 92.76,18.10 90.41,18.18 87.28,18.27"/>
    </edge>

    <edge id="E0" from="J0" to="J1" priority="-1">
        <lane id="E0_0" index="0" speed="13.89" length="69.15" shape="-24.74,73.73 44.40,75.25"/>
    </edge>
    <edge id="E1" from="J2" to="J1" priority="-1">
        <lane id="E1_0" index="0" speed="13.89" length="46.34" shape="102.64,49.23 63.31,73.74"/>
    </edge>
    <edge id="E10" from="J5" to="J0" priority="-1">
        <lane id="E10_0" index="0" speed="13.89" length="127.05" shape="101.67,89.02 -24.81,77.02"/>
    </edge>
    <edge id="E11" from="J7" to="J8" priority="-1">
        <lane id="E11_0" index="0" speed="13.89" length="58.94" shape="153.10,40.16 97.99,19.26"/>
    </edge>
    <edge id="E12" from="J8" to="J3" priority="-1">
        <lane id="E12_0" index="0" speed="13.89" length="23.20" shape="88.14,22.05 67.22,32.07"/>
    </edge>
    <edge id="E13" from="J8" to="J9" priority="-1">
        <lane id="E13_0" index="0" speed="13.89" length="103.20" shape="87.28,18.27 -15.92,18.27"/>
    </edge>
    <edge id="E14" from="J4" to="J9" priority="-1">
        <lane id="E14_0" index="0" speed="13.89" length="12.42" shape="-27.02,30.07 -19.60,20.12"/>
    </edge>
    <edge id="E2" from="J1" to="J3" priority="-1">
        <lane id="E2_0" index="0" speed="13.89" length="23.75" shape="52.96,67.67 52.08,43.94"/>
    </edge>
    <edge id="E3" from="J3" to="J2" priority="-1">
        <lane id="E3_0" index="0" speed="13.89" length="35.59" shape="68.03,37.39 103.26,42.48"/>
    </edge>
    <edge id="E4" from="J3" to="J4" priority="-1">
        <lane id="E4_0" index="0" speed="13.89" length="56.42" shape="46.39,38.27 -10.00,36.42"/>
    </edge>
    <edge id="E5" from="J0" to="J4" priority="-1">
        <lane id="E5_0" index="0" speed="13.89" length="32.41" shape="-27.88,70.68 -29.52,38.31"/>
    </edge>
    <edge id="E6" from="J4" to="J1" priority="-1">
        <lane id="E6_0" index="0" speed="13.89" length="63.96" shape="-11.23,41.15 45.61,70.48"/>
    </edge>
    <edge id="E7" from="J2" to="J5" priority="-1">
        <lane id="E7_0" index="0" speed="13.89" length="28.00" shape="108.37,52.52 107.60,80.51"/>
    </edge>
    <edge id="E8" from="J6" to="J7" priority="-1">
        <lane id="E8_0" index="0" speed="13.89" length="42.90" shape="147.50,84.29 154.12,41.90"/>
    </edge>
    <edge id="E9" from="J5" to="J6" priority="-1">
        <lane id="E9_0" index="0" speed="13.89" length="32.83" shape="113.11,86.10 145.94,85.64"/>
    </edge>

    <junction id="J0" type="priority" x="-26.04" y="75.30" incLanes="E10_0" intLanes=":J0_0_0" shape="-24.85,78.63 -24.70,72.13 -25.55,71.94 -25.85,71.73 -26.07,71.43 -26.21,71.06 -26.28,70.60 -29.48,70.76 -29.24,73.05 -28.79,74.95 -28.13,76.46 -27.25,77.57 -26.16,78.30">
        <request index="0" response="0" foes="0" cont="0"/>
    </junction>
    <junction id="J1" type="priority" x="54.91" y="77.08" incLanes="E1_0 E6_0 E0_0" intLanes=":J1_3_0 :J1_1_0 :J1_2_0" shape="64.15,75.09 62.46,72.38 60.14,73.55 58.23,73.94 56.71,73.54 55.59,72.35 54.88,70.37 54.56,67.61 51.36,67.73 50.87,69.65 50.18,70.06 49.20,70.10 47.92,69.76 46.34,69.06 44.88,71.90 44.43,73.65 44.36,76.85 48.69,77.16 52.03,77.66 54.82,78.02 57.48,77.93 60.45,77.06">
        <request index="0" response="100" foes="110" cont="1"/>
        <request index="1" response="101" foes="101" cont="0"/>
        <request index="2" response="000" foes="011" cont="0"/>
    </junction>
    <junction id="J2" type="priority" x="106.99" y="44.64" incLanes="E3_0" intLanes=":J2_0_0 :J2_1_0" shape="103.49,40.90 103.03,44.07 104.65,44.75 104.70,45.31 104.24,46.01 103.27,46.87 101.80,47.87 103.49,50.59 105.36,49.86 106.01,50.00 106.46,50.49 106.71,51.31 106.77,52.47 109.97,52.56 109.87,49.27 109.38,46.52 108.50,44.31 107.22,42.63 105.55,41.50">
        <request index="0" response="00" foes="00" cont="0"/>
        <request index="1" response="00" foes="00" cont="0"/>
    </junction>
    <junction id="J3" type="priority" x="53.42" y="36.90" incLanes="E2_0 E12_0" intLanes=":J3_0_0 :J3_4_0 :J3_2_0 :J3_3_0" shape="50.48,44.00 53.68,43.88 54.00,41.80 55.13,40.23 57.08,39.16 59.84,38.60 63.41,38.54 67.80,38.98 68.26,35.81 66.46,35.30 66.19,34.95 66.34,34.53 66.92,34.06 67.91,33.51 66.53,30.63 62.48,32.67 59.44,34.28 56.87,35.48 54.20,36.26 50.91,36.66 46.44,36.67 46.33,39.87 48.57,40.39 49.37,40.97 49.95,41.76 50.32,42.77">
        <request index="0" response="0000" foes="1000" cont="0"/>
        <request index="1" response="0100" foes="0100" cont="1"/>
        <request index="2" response="0000" foes="0010" cont="0"/>
        <request index="3" response="0001" foes="0001" cont="0"/>
    </junction>
    <junction id="J4" type="priority" x="-28.13" y="34.23" incLanes="E5_0 E4_0" intLanes=":J4_0_0 :J4_4_0 :J4_2_0 :J4_5_0" shape="-31.12,38.39 -27.93,38.22 -26.24,36.93 -24.04,37.31 -20.92,38.38 -16.90,40.13 -11.97,42.57 -10.50,39.73 -10.06,38.02 -9.95,34.83 -15.44,34.55 -19.78,34.14 -22.99,33.58 -25.05,32.87 -25.96,32.02 -25.74,31.02 -28.30,29.11 -29.54,30.81 -30.38,32.17 -30.89,33.39 -31.15,34.69 -31.20,36.29">
        <request index="0" response="0000" foes="1000" cont="0"/>
        <request index="1" response="0100" foes="0100" cont="1"/>
        <request index="2" response="0000" foes="0010" cont="0"/>
        <request index="3" response="0001" foes="0001" cont="1"/>
    </junction>
    <junction id="J5" type="priority" x="105.80" y="87.80" incLanes="E7_0" intLanes=":J5_0_0 :J5_1_0" shape="113.14,87.70 113.09,84.50 110.88,84.08 110.12,83.54 109.58,82.77 109.28,81.78 109.20,80.56 106.00,80.47 105.83,82.70 105.45,84.50 104.86,85.87 104.05,86.82 103.04,87.33 101.82,87.42 101.52,90.61 104.03,90.59 105.85,90.12 107.32,89.40 108.79,88.61 110.61,87.98">
        <request index="0" response="00" foes="00" cont="0"/>
        <request index="1" response="00" foes="00" cont="0"/>
    </junction>
    <junction id="J6" type="priority" x="148.66" y="87.20" incLanes="E9_0" intLanes=":J6_0_0" shape="149.08,84.53 145.92,84.04 145.96,87.24 147.51,86.92 148.09,86.54 148.55,86.02 148.87,85.35">
        <request index="0" response="0" foes="0" cont="0"/>
    </junction>
    <junction id="J7" type="priority" x="156.10" y="39.58" incLanes="E8_0" intLanes=":J7_0_0" shape="153.67,38.66 152.54,41.65 155.70,42.15 155.65,40.62 155.39,39.99 154.98,39.46 154.40,39.01">
        <request index="0" response="0" foes="0" cont="0"/>
    </junction>
    <junction id="J8" type="priority" x="95.68" y="16.67" incLanes="E11_0" intLanes=":J8_0_0 :J8_1_0" shape="97.43,20.75 98.56,17.76 96.28,16.98 94.54,16.59 93.06,16.46 91.55,16.51 89.72,16.61 87.28,16.67 87.28,19.87 87.45,20.61 88.83,23.50 91.01,22.49 92.90,21.70 94.48,21.14 95.76,20.79 96.74,20.66">
        <request index="0" response="00" foes="00" cont="0"/>
        <request index="1" response="00" foes="00" cont="0"/>
    </junction>
    <junction id="J9" type="dead_end" x="-15.03" y="16.67" incLanes="E13_0 E14_0" intLanes="" shape="-15.92,19.87 -15.92,16.67 -17.85,16.95 -18.71,17.29 -19.50,17.78 -20.23,18.40 -20.88,19.16 -18.31,21.07 -17.65,20.40 -17.27,20.17 -16.85,20.00 -16.40,19.90"/>

    <junction id=":J1_3_0" type="internal" x="53.66" y="71.91" incLanes=":J1_0_0 E0_0" intLanes=":J1_1_0 :J1_2_0"/>
    <junction id=":J3_4_0" type="internal" x="62.52" y="37.03" incLanes=":J3_1_0 E12_0" intLanes=":J3_2_0"/>
    <junction id=":J4_4_0" type="internal" x="-16.77" y="38.94" incLanes=":J4_1_0 E4_0" intLanes=":J4_2_0"/>
    <junction id=":J4_5_0" type="internal" x="-26.28" y="31.80" incLanes=":J4_3_0 E5_0" intLanes=":J4_0_0"/>

    <connection from="E0" to="E2" fromLane="0" toLane="0" via=":J1_2_0" dir="r" state="M"/>
    <connection from="E1" to="E2" fromLane="0" toLane="0" via=":J1_0_0" dir="l" state="m"/>
    <connection from="E10" to="E5" fromLane="0" toLane="0" via=":J0_0_0" dir="l" state="M"/>
    <connection from="E11" to="E12" fromLane="0" toLane="0" via=":J8_0_0" dir="r" state="M"/>
    <connection from="E11" to="E13" fromLane="0" toLane="0" via=":J8_1_0" dir="s" state="M"/>
    <connection from="E12" to="E3" fromLane="0" toLane="0" via=":J3_2_0" dir="r" state="M"/>
    <connection from="E12" to="E4" fromLane="0" toLane="0" via=":J3_3_0" dir="s" state="m"/>
    <connection from="E2" to="E4" fromLane="0" toLane="0" via=":J3_0_0" dir="r" state="M"/>
    <connection from="E2" to="E3" fromLane="0" toLane="0" via=":J3_1_0" dir="l" state="m"/>
    <connection from="E3" to="E7" fromLane="0" toLane="0" via=":J2_0_0" dir="L" state="M"/>
    <connection from="E3" to="E1" fromLane="0" toLane="0" via=":J2_1_0" dir="l" state="M"/>
    <connection from="E4" to="E6" fromLane="0" toLane="0" via=":J4_2_0" dir="r" state="M"/>
    <connection from="E4" to="E14" fromLane="0" toLane="0" via=":J4_3_0" dir="l" state="m"/>
    <connection from="E5" to="E14" fromLane="0" toLane="0" via=":J4_0_0" dir="s" state="M"/>
    <connection from="E5" to="E6" fromLane="0" toLane="0" via=":J4_1_0" dir="l" state="m"/>
    <connection from="E6" to="E2" fromLane="0" toLane="0" via=":J1_1_0" dir="r" state="m"/>
    <connection from="E7" to="E9" fromLane="0" toLane="0" via=":J5_0_0" dir="r" state="M"/>
    <connection from="E7" to="E10" fromLane="0" toLane="0" via=":J5_1_0" dir="l" state="M"/>
    <connection from="E8" to="E11" fromLane="0" toLane="0" via=":J7_0_0" dir="r" state="M"/>
    <connection from="E9" to="E8" fromLane="0" toLane="0" via=":J6_0_0" dir="r" state="M"/>

    <connection from=":J0_0" to="E5" fromLane="0" toLane="0" dir="l" state="M"/>
    <connection from=":J1_0" to="E2" fromLane="0" toLane="0" via=":J1_3_0" dir="l" state="m"/>
    <connection from=":J1_3" to="E2" fromLane="0" toLane="0" dir="l" state="M"/>
    <connection from=":J1_1" to="E2" fromLane="0" toLane="0" dir="r" state="M"/>
    <connection from=":J1_2" to="E2" fromLane="0" toLane="0" dir="r" state="M"/>
    <connection from=":J2_0" to="E7" fromLane="0" toLane="0" dir="L" state="M"/>
    <connection from=":J2_1" to="E1" fromLane="0" toLane="0" dir="l" state="M"/>
    <connection from=":J3_0" to="E4" fromLane="0" toLane="0" dir="r" state="M"/>
    <connection from=":J3_1" to="E3" fromLane="0" toLane="0" via=":J3_4_0" dir="l" state="m"/>
    <connection from=":J3_4" to="E3" fromLane="0" toLane="0" dir="l" state="M"/>
    <connection from=":J3_2" to="E3" fromLane="0" toLane="0" dir="r" state="M"/>
    <connection from=":J3_3" to="E4" fromLane="0" toLane="0" dir="s" state="M"/>
    <connection from=":J4_0" to="E14" fromLane="0" toLane="0" dir="s" state="M"/>
    <connection from=":J4_1" to="E6" fromLane="0" toLane="0" via=":J4_4_0" dir="l" state="m"/>
    <connection from=":J4_4" to="E6" fromLane="0" toLane="0" dir="l" state="M"/>
    <connection from=":J4_2" to="E6" fromLane="0" toLane="0" dir="r" state="M"/>
    <connection from=":J4_3" to="E14" fromLane="0" toLane="0" via=":J4_5_0" dir="l" state="m"/>
    <connection from=":J4_5" to="E14" fromLane="0" toLane="0" dir="l" state="M"/>
    <connection from=":J5_0" to="E9" fromLane="0" toLane="0" dir="r" state="M"/>
    <connection from=":J5_1" to="E10" fromLane="0" toLane="0" dir="l" state="M"/>
    <connection from=":J6_0" to="E8" fromLane="0" toLane="0" dir="r" state="M"/>
    <connection from=":J7_0" to="E11" fromLane="0" toLane="0" dir="r" state="M"/>
    <connection from=":J8_0" to="E12" fromLane="0" toLane="0" dir="r" state="M"/>
    <connection from=":J8_1" to="E13" fromLane="0" toLane="0" dir="s" state="M"/>

</net>
