<?xml version="1.0" encoding="UTF-8"?>

<!-- generated on 2023-03-18 14:47:02 by Eclipse SUMO netedit Version 1.16.0
-->

<routes xmlns:xsi="http://www.w3.org/2001/XMLSchema-instance" xsi:noNamespaceSchemaLocation="http://sumo.dlr.de/xsd/routes_file.xsd">
    <!-- Routes -->
    <route id="r_0" edges="E0 E1"/>
    <route id="r_1" edges="E2 E3 E4 E5 E6 E7 E8 E9 E10 E11"/>
    <!-- Vehicles, persons and containers (sorted by depart) -->
    <trip id="t_0" type="DEFAULT_BIKETYPE" depart="0.00" from="E0" to="E0"/>
    <flow id="f_0" type="DEFAULT_BIKETYPE" begin="0.00" from="E0" to="E0" end="3600.00" vehsPerHour="1800.00"/>
</routes>
