<?xml version="1.0" encoding="UTF-8"?>

<!-- generated on 2023-03-18 17:13:50 by Eclipse SUMO netedit Version 1.16.0
<configuration xmlns:xsi="http://www.w3.org/2001/XMLSchema-instance" xsi:noNamespaceSchemaLocation="http://sumo.dlr.de/xsd/netconvertConfiguration.xsd">

    <input>
        <sumocfg-file value="/home/luis/Documents/cinvestav/InteligenciaComputacional/proyecto/ejempki.sumocfg"/>
        <route-files value="/home/luis/Documents/cinvestav/InteligenciaComputacional/proyecto/ejempki.rou.xml"/>
        <sumo-net-file value="/home/luis/Documents/cinvestav/InteligenciaComputacional/proyecto/hello.net.xml"/>
    </input>

    <output>
        <output-file value="/home/luis/Documents/cinvestav/InteligenciaComputacional/proyecto/hello.net.xml"/>
    </output>

    <processing>
        <geometry.min-radius.fix.railways value="false"/>
        <geometry.max-grade.fix value="false"/>
        <offset.disable-normalization value="true"/>
        <lefthand value="0"/>
    </processing>

    <junctions>
        <no-turnarounds value="true"/>
        <junctions.corner-detail value="5"/>
        <junctions.limit-turn-speed value="5.50"/>
        <rectangular-lane-cut value="0"/>
    </junctions>

    <pedestrian>
        <walkingareas value="0"/>
    </pedestrian>

</configuration>
-->

<net version="1.16" junctionCornerDetail="5" limitTurnSpeed="5.50" xmlns:xsi="http://www.w3.org/2001/XMLSchema-instance" xsi:noNamespaceSchemaLocation="http://sumo.dlr.de/xsd/net_file.xsd">

    <location netOffset="0.00,0.00" convBoundary="-200.00,-100.00,200.00,100.00" origBoundary="-10000000000.00,-10000000000.00,10000000000.00,10000000000.00" projParameter="!"/>

    <edge id=":1_0" function="internal">
        <lane id=":1_0_0" index="0" speed="3.90" length="2.58" shape="-101.60,50.00 -101.50,49.30 -101.20,48.80 -100.70,48.50 -100.00,48.40"/>
    </edge>
    <edge id=":2_0" function="internal">
        <lane id=":2_0_0" index="0" speed="13.89" length="0.10" shape="0.00,48.40 0.00,48.40"/>
    </edge>
    <edge id=":3_0" function="internal">
        <lane id=":3_0_0" index="0" speed="13.89" length="0.75" shape="100.00,48.40 100.22,48.40 100.37,48.42 100.52,48.47 100.72,48.57"/>
    </edge>
    <edge id=":J0_0" function="internal">
        <lane id=":J0_0_0" index="0" speed="3.95" length="3.61" shape="196.08,96.25 197.10,96.60 197.82,96.47 198.26,95.88 198.40,94.82"/>
    </edge>
    <edge id=":J1_0" function="internal">
        <lane id=":J1_0_0" index="0" speed="13.89" length="0.10" shape="198.40,0.00 198.40,0.00"/>
    </edge>
    <edge id=":J2_0" function="internal">
        <lane id=":J2_0_0" index="0" speed="3.90" length="2.58" shape="198.40,-96.80 198.30,-97.50 198.00,-98.00 197.50,-98.30 196.80,-98.40"/>
    </edge>
    <edge id=":J3_0" function="internal">
        <lane id=":J3_0_0" index="0" speed="3.90" length="2.58" shape="103.20,-98.40 102.50,-98.30 102.00,-98.00 101.70,-97.50 101.60,-96.80"/>
    </edge>
    <edge id=":J4_0" function="internal">
        <lane id=":J4_0_0" index="0" speed="3.90" length="2.58" shape="101.60,0.00 101.50,0.70 101.20,1.20 100.70,1.50 100.00,1.60"/>
    </edge>
    <edge id=":J5_0" function="internal">
        <lane id=":J5_0_0" index="0" speed="13.89" length="0.10" shape="0.00,1.60 0.00,1.60"/>
    </edge>
    <edge id=":J6_0" function="internal">
        <lane id=":J6_0_0" index="0" speed="4.20" length="1.26" shape="-98.67,1.60 -98.99,1.63 -99.29,1.72 -99.56,1.86 -99.81,2.07"/>
    </edge>
    <edge id=":J7_0" function="internal">
        <lane id=":J7_0_0" index="0" speed="4.12" length="4.78" shape="-193.41,95.67 -194.36,96.86 -194.49,97.72 -193.79,98.23 -192.27,98.40"/>
    </edge>
    <edge id=":J8_0" function="internal">
        <lane id=":J8_0_0" index="0" speed="3.90" length="2.58" shape="-103.20,98.40 -102.50,98.30 -102.00,98.00 -101.70,97.50 -101.60,96.80"/>
    </edge>

    <edge id="E0" from="1" to="2" priority="-1">
        <lane id="E0_0" index="0" speed="13.89" length="100.00" shape="-100.00,48.40 0.00,48.40"/>
    </edge>
    <edge id="E1" from="2" to="3" priority="-1">
        <lane id="E1_0" index="0" speed="13.89" length="100.00" shape="0.00,48.40 100.00,48.40"/>
    </edge>
    <edge id="E10" from="J7" to="J8" priority="-1">
        <lane id="E10_0" index="0" speed="13.89" length="89.07" shape="-192.27,98.40 -103.20,98.40"/>
    </edge>
    <edge id="E11" from="J8" to="1" priority="-1">
        <lane id="E11_0" index="0" speed="13.89" length="46.80" shape="-101.60,96.80 -101.60,50.00"/>
    </edge>
    <edge id="E2" from="3" to="J0" priority="-1">
        <lane id="E2_0" index="0" speed="13.89" length="106.63" shape="100.72,48.57 196.08,96.25"/>
    </edge>
    <edge id="E3" from="J0" to="J1" priority="-1">
        <lane id="E3_0" index="0" speed="13.89" length="94.82" shape="198.40,94.82 198.40,0.00"/>
    </edge>
    <edge id="E4" from="J1" to="J2" priority="-1">
        <lane id="E4_0" index="0" speed="13.89" length="96.80" shape="198.40,0.00 198.40,-96.80"/>
    </edge>
    <edge id="E5" from="J2" to="J3" priority="-1">
        <lane id="E5_0" index="0" speed="13.89" length="93.60" shape="196.80,-98.40 103.20,-98.40"/>
    </edge>
    <edge id="E6" from="J3" to="J4" priority="-1">
        <lane id="E6_0" index="0" speed="13.89" length="96.80" shape="101.60,-96.80 101.60,0.00"/>
    </edge>
    <edge id="E7" from="J4" to="J5" priority="-1">
        <lane id="E7_0" index="0" speed="13.89" length="100.00" shape="100.00,1.60 0.00,1.60"/>
    </edge>
    <edge id="E8" from="J5" to="J6" priority="-1">
        <lane id="E8_0" index="0" speed="13.89" length="98.67" shape="0.00,1.60 -98.67,1.60"/>
    </edge>
    <edge id="E9" from="J6" to="J7" priority="-1">
        <lane id="E9_0" index="0" speed="13.89" length="132.37" shape="-99.81,2.07 -193.41,95.67"/>
    </edge>

    <junction id="1" type="priority" x="-100.00" y="50.00" incLanes="E11_0" intLanes=":1_0_0" shape="-103.20,50.00 -100.00,50.00 -100.00,46.80 -101.78,47.16 -102.40,47.60 -102.84,48.22 -103.11,49.02">
        <request index="0" response="0" foes="0" cont="0"/>
    </junction>
    <junction id="2" type="priority" x="0.00" y="50.00" incLanes="E0_0" intLanes=":2_0_0" shape="0.00,50.00 0.00,46.80 0.00,50.00">
        <request index="0" response="0" foes="0" cont="0"/>
    </junction>
    <junction id="3" type="priority" x="100.00" y="50.00" incLanes="E1_0" intLanes=":3_0_0" shape="100.00,50.00 101.43,47.14 100.93,46.90 100.74,46.85 100.55,46.81 100.32,46.80 100.00,46.80">
        <request index="0" response="0" foes="0" cont="0"/>
    </junction>
    <junction id="J0" type="priority" x="200.00" y="100.00" incLanes="E2_0" intLanes=":J0_0_0" shape="200.00,94.82 196.80,94.82 195.37,97.68 197.94,98.40 198.84,98.13 199.49,97.44 199.87,96.34">
        <request index="0" response="0" foes="0" cont="0"/>
    </junction>
    <junction id="J1" type="priority" x="200.00" y="0.00" incLanes="E3_0" intLanes=":J1_0_0" shape="196.80,0.00 200.00,0.00 196.80,0.00">
        <request index="0" response="0" foes="0" cont="0"/>
    </junction>
    <junction id="J2" type="priority" x="200.00" y="-100.00" incLanes="E4_0" intLanes=":J2_0_0" shape="196.80,-96.80 200.00,-96.80 199.64,-98.58 199.20,-99.20 198.58,-99.64 197.78,-99.91 196.80,-100.00">
        <request index="0" response="0" foes="0" cont="0"/>
    </junction>
    <junction id="J3" type="priority" x="100.00" y="-100.00" incLanes="E5_0" intLanes=":J3_0_0" shape="100.00,-96.80 103.20,-96.80 103.20,-100.00 101.42,-99.64 100.80,-99.20 100.36,-98.58 100.09,-97.78">
        <request index="0" response="0" foes="0" cont="0"/>
    </junction>
    <junction id="J4" type="priority" x="100.00" y="0.00" incLanes="E6_0" intLanes=":J4_0_0" shape="103.20,0.00 100.00,0.00 100.00,3.20 101.78,2.84 102.40,2.40 102.84,1.78 103.11,0.98">
        <request index="0" response="0" foes="0" cont="0"/>
    </junction>
    <junction id="J5" type="priority" x="0.00" y="0.00" incLanes="E7_0" intLanes=":J5_0_0" shape="0.00,3.20 0.00,0.00 0.00,3.20">
        <request index="0" response="0" foes="0" cont="0"/>
    </junction>
    <junction id="J6" type="priority" x="-100.00" y="0.00" incLanes="E8_0" intLanes=":J6_0_0" shape="-98.67,3.20 -98.67,0.00 -99.52,0.10 -99.90,0.23 -100.27,0.42 -100.61,0.65 -100.94,0.94">
        <request index="0" response="0" foes="0" cont="0"/>
    </junction>
    <junction id="J7" type="priority" x="-200.00" y="100.00" incLanes="E9_0" intLanes=":J7_0_0" shape="-192.27,100.00 -192.27,96.80 -194.54,94.54 -195.99,96.21 -196.71,97.57 -196.70,98.63 -195.96,99.39 -194.48,99.85">
        <request index="0" response="0" foes="0" cont="0"/>
    </junction>
    <junction id="J8" type="priority" x="-100.00" y="100.00" incLanes="E10_0" intLanes=":J8_0_0" shape="-100.00,96.80 -103.20,96.80 -103.20,100.00 -101.42,99.64 -100.80,99.20 -100.36,98.58 -100.09,97.78">
        <request index="0" response="0" foes="0" cont="0"/>
    </junction>

    <connection from="E0" to="E1" fromLane="0" toLane="0" via=":2_0_0" dir="s" state="M"/>
    <connection from="E1" to="E2" fromLane="0" toLane="0" via=":3_0_0" dir="s" state="M"/>
    <connection from="E10" to="E11" fromLane="0" toLane="0" via=":J8_0_0" dir="r" state="M"/>
    <connection from="E11" to="E0" fromLane="0" toLane="0" via=":1_0_0" dir="l" state="M"/>
    <connection from="E2" to="E3" fromLane="0" toLane="0" via=":J0_0_0" dir="r" state="M"/>
    <connection from="E3" to="E4" fromLane="0" toLane="0" via=":J1_0_0" dir="s" state="M"/>
    <connection from="E4" to="E5" fromLane="0" toLane="0" via=":J2_0_0" dir="r" state="M"/>
    <connection from="E5" to="E6" fromLane="0" toLane="0" via=":J3_0_0" dir="r" state="M"/>
    <connection from="E6" to="E7" fromLane="0" toLane="0" via=":J4_0_0" dir="l" state="M"/>
    <connection from="E7" to="E8" fromLane="0" toLane="0" via=":J5_0_0" dir="s" state="M"/>
    <connection from="E8" to="E9" fromLane="0" toLane="0" via=":J6_0_0" dir="r" state="M"/>
    <connection from="E9" to="E10" fromLane="0" toLane="0" via=":J7_0_0" dir="r" state="M"/>

    <connection from=":1_0" to="E0" fromLane="0" toLane="0" dir="l" state="M"/>
    <connection from=":2_0" to="E1" fromLane="0" toLane="0" dir="s" state="M"/>
    <connection from=":3_0" to="E2" fromLane="0" toLane="0" dir="s" state="M"/>
    <connection from=":J0_0" to="E3" fromLane="0" toLane="0" dir="r" state="M"/>
    <connection from=":J1_0" to="E4" fromLane="0" toLane="0" dir="s" state="M"/>
    <connection from=":J2_0" to="E5" fromLane="0" toLane="0" dir="r" state="M"/>
    <connection from=":J3_0" to="E6" fromLane="0" toLane="0" dir="r" state="M"/>
    <connection from=":J4_0" to="E7" fromLane="0" toLane="0" dir="l" state="M"/>
    <connection from=":J5_0" to="E8" fromLane="0" toLane="0" dir="s" state="M"/>
    <connection from=":J6_0" to="E9" fromLane="0" toLane="0" dir="r" state="M"/>
    <connection from=":J7_0" to="E10" fromLane="0" toLane="0" dir="r" state="M"/>
    <connection from=":J8_0" to="E11" fromLane="0" toLane="0" dir="r" state="M"/>

</net>
