<routes>
  <vType id="car" accel="0.8" decel="4.5" sigma="0.5" length="4" maxSpeed="16.67" guiShape="passenger"/>

  <route id="route0" edges="gneE0 gneE2 gneE5"/>
  <route id="route1" edges="gneE1 gneE3 gneE6"/>
  <route id="route2" edges="gneE4 gneE6"/>
  <route id="route3" edges="gneE7 gneE5"/>

  <vehicle id="veh0" type="car" route="route0" depart="0"/>
  <vehicle id="veh1" type="car" route="route1" depart="1"/>
  <vehicle id="veh2" type="car" route="route2" depart="2"/>
  <vehicle id="veh3" type="car" route="route3" depart="3"/>

</routes>
