<configuration>
  <input>
    <net-file value="network.net.xml"/>
    <route-files value="routes.rou.xml"/>
  </input>
  <time>
    <begin value="0"/>
    <end value="3600"/>
  </time>
  <report>
    <verbose value="true"/>
    <xml-validation value="never"/>
    <no-step-log value="true"/>
  </report>
</configuration>